
     RDKit          3D

 62 64  0  0  0  0  0  0  0  0999 V2000
   -4.7706    2.0399    2.3714 C   0  0  0  0  0  0  0  0  0  0  0  0
   -4.2105    2.4722    1.0281 C   0  0  0  0  0  0  0  0  0  0  0  0
   -2.8920    1.7648    0.7380 C   0  0  0  0  0  0  0  0  0  0  0  0
   -1.8412    2.3494    1.0120 O   0  0  0  0  0  0  0  0  0  0  0  0
   -2.9384    0.4464    0.2531 N   0  0  0  0  0  0  0  0  0  0  0  0
   -4.0846    0.0317   -0.4833 C   0  0  0  0  0  0  0  0  0  0  0  0
   -4.3263    0.5362   -1.7671 C   0  0  0  0  0  0  0  0  0  0  0  0
   -5.4443    0.1097   -2.4828 C   0  0  0  0  0  0  0  0  0  0  0  0
   -6.3236   -0.8127   -1.9157 C   0  0  0  0  0  0  0  0  0  0  0  0
   -6.0921   -1.3066   -0.6317 C   0  0  0  0  0  0  0  0  0  0  0  0
   -4.9721   -0.8873    0.0850 C   0  0  0  0  0  0  0  0  0  0  0  0
   -1.6320   -0.3243   -0.0062 C   0  0  0  0  0  0  0  0  0  0  0  0
   -1.9282   -1.8255   -0.3822 C   0  0  0  0  0  0  0  0  0  0  0  0
   -0.7441   -2.5979   -0.5806 O   0  0  0  0  0  0  0  0  0  0  0  0
   -1.0368   -3.9576   -0.8698 C   0  0  0  0  0  0  0  0  0  0  0  0
   -0.7608   -0.3322    1.2929 C   0  0  0  0  0  0  0  0  0  0  0  0
    0.5818    0.3884    1.1384 C   0  0  0  0  0  0  0  0  0  0  0  0
    1.3230   -0.1915    0.0216 N   0  0  0  0  0  0  0  0  0  0  0  0
    2.7175    0.2748   -0.0110 C   0  0  0  0  0  0  0  0  0  0  0  0
    3.6070   -0.5309   -0.9741 C   0  0  0  0  0  0  0  0  0  0  0  0
    4.9705   -0.0618   -0.9593 N   0  0  0  0  0  0  0  0  0  0  0  0
    5.3711    1.0482   -1.6544 N   0  0  0  0  0  0  0  0  0  0  0  0
    6.5608    1.3390   -1.3179 N   0  0  0  0  0  0  0  0  0  0  0  0
    6.9882    0.4354   -0.3865 N   0  0  0  0  0  0  0  0  0  0  0  0
    8.2362    0.5756    0.3166 C   0  0  0  0  0  0  0  0  0  0  0  0
    8.1156    1.5113    1.5123 C   0  0  0  0  0  0  0  0  0  0  0  0
    5.9627   -0.4378   -0.0796 C   0  0  0  0  0  0  0  0  0  0  0  0
    5.9349   -1.3046    0.7731 O   0  0  0  0  0  0  0  0  0  0  0  0
    0.6322   -0.0290   -1.2621 C   0  0  0  0  0  0  0  0  0  0  0  0
   -0.8525    0.3460   -1.1700 C   0  0  0  0  0  0  0  0  0  0  0  0
   -4.0339    2.1830    3.1681 H   0  0  0  0  0  0  0  0  0  0  0  0
   -5.6588    2.6280    2.6200 H   0  0  0  0  0  0  0  0  0  0  0  0
   -5.0527    0.9833    2.3693 H   0  0  0  0  0  0  0  0  0  0  0  0
   -4.0069    3.5500    1.0463 H   0  0  0  0  0  0  0  0  0  0  0  0
   -4.9460    2.3258    0.2354 H   0  0  0  0  0  0  0  0  0  0  0  0
   -3.6495    1.2587   -2.2140 H   0  0  0  0  0  0  0  0  0  0  0  0
   -5.6319    0.4960   -3.4817 H   0  0  0  0  0  0  0  0  0  0  0  0
   -7.1932   -1.1453   -2.4762 H   0  0  0  0  0  0  0  0  0  0  0  0
   -6.7848   -2.0165   -0.1887 H   0  0  0  0  0  0  0  0  0  0  0  0
   -4.8021   -1.2738    1.0871 H   0  0  0  0  0  0  0  0  0  0  0  0
   -2.5106   -2.2910    0.4230 H   0  0  0  0  0  0  0  0  0  0  0  0
   -2.5122   -1.8799   -1.3080 H   0  0  0  0  0  0  0  0  0  0  0  0
   -0.0926   -4.4890   -1.0194 H   0  0  0  0  0  0  0  0  0  0  0  0
   -1.5693   -4.4213   -0.0332 H   0  0  0  0  0  0  0  0  0  0  0  0
   -1.6312   -4.0346   -1.7874 H   0  0  0  0  0  0  0  0  0  0  0  0
   -0.5524   -1.3646    1.6072 H   0  0  0  0  0  0  0  0  0  0  0  0
   -1.3022    0.0994    2.1452 H   0  0  0  0  0  0  0  0  0  0  0  0
    1.1406    0.2463    2.0725 H   0  0  0  0  0  0  0  0  0  0  0  0
    0.4562    1.4695    1.0131 H   0  0  0  0  0  0  0  0  0  0  0  0
    2.7597    1.3432   -0.2634 H   0  0  0  0  0  0  0  0  0  0  0  0
    3.1520    0.1814    0.9936 H   0  0  0  0  0  0  0  0  0  0  0  0
    3.2481   -0.4671   -2.0073 H   0  0  0  0  0  0  0  0  0  0  0  0
    3.6087   -1.5868   -0.6784 H   0  0  0  0  0  0  0  0  0  0  0  0
    8.5504   -0.4206    0.6651 H   0  0  0  0  0  0  0  0  0  0  0  0
    8.9886    0.9442   -0.3915 H   0  0  0  0  0  0  0  0  0  0  0  0
    7.3717    1.1463    2.2294 H   0  0  0  0  0  0  0  0  0  0  0  0
    7.8081    2.5173    1.1961 H   0  0  0  0  0  0  0  0  0  0  0  0
    9.0765    1.5901    2.0328 H   0  0  0  0  0  0  0  0  0  0  0  0
    0.7439   -0.9556   -1.8381 H   0  0  0  0  0  0  0  0  0  0  0  0
    1.1125    0.7545   -1.8646 H   0  0  0  0  0  0  0  0  0  0  0  0
   -0.9036    1.4382   -1.0753 H   0  0  0  0  0  0  0  0  0  0  0  0
   -1.3345    0.1219   -2.1315 H   0  0  0  0  0  0  0  0  0  0  0  0
  1  2  1  0
  2  3  1  0
  3  4  2  0
  3  5  1  0
  5  6  1  0
  6  7  2  0
  7  8  1  0
  8  9  2  0
  9 10  1  0
 10 11  2  0
  5 12  1  0
 12 13  1  0
 13 14  1  0
 14 15  1  0
 12 16  1  0
 16 17  1  0
 17 18  1  0
 18 19  1  0
 19 20  1  0
 20 21  1  0
 21 22  1  0
 22 23  2  0
 23 24  1  0
 24 25  1  0
 25 26  1  0
 24 27  1  0
 27 28  2  0
 18 29  1  0
 29 30  1  0
 11  6  1  0
 30 12  1  0
 27 21  1  0
  1 31  1  0
  1 32  1  0
  1 33  1  0
  2 34  1  0
  2 35  1  0
  7 36  1  0
  8 37  1  0
  9 38  1  0
 10 39  1  0
 11 40  1  0
 13 41  1  0
 13 42  1  0
 15 43  1  0
 15 44  1  0
 15 45  1  0
 16 46  1  0
 16 47  1  0
 17 48  1  0
 17 49  1  0
 19 50  1  0
 19 51  1  0
 20 52  1  0
 20 53  1  0
 25 54  1  0
 25 55  1  0
 26 56  1  0
 26 57  1  0
 26 58  1  0
 29 59  1  0
 29 60  1  0
 30 61  1  0
 30 62  1  0
M  END
$$$$

     RDKit          3D

 75 81  0  0  0  0  0  0  0  0999 V2000
    3.0979    2.7258   -1.0429 C   0  0  0  0  0  0  0  0  0  0  0  0
    2.9010    1.3400   -0.8160 O   0  0  0  0  0  0  0  0  0  0  0  0
    1.6271    0.8871   -0.3661 C   0  0  2  0  0  0  0  0  0  0  0  0
    1.2646    1.4246    1.0318 C   0  0  0  0  0  0  0  0  0  0  0  0
   -0.0440    0.8037    1.5380 C   0  0  0  0  0  0  0  0  0  0  0  0
   -0.7307   -0.0460    0.4187 C   0  0  1  0  0  0  0  0  0  0  0  0
    0.2492   -1.2191    0.1962 C   0  0  0  0  0  0  0  0  0  0  0  0
    1.6582   -0.7136   -0.3148 C   0  0  2  0  0  0  0  0  0  0  0  0
    2.8280   -1.5477    0.4034 C   0  0  2  0  0  0  0  0  0  0  0  0
    2.5449   -3.0543    0.0949 C   0  0  0  0  0  0  0  0  0  0  0  0
    2.6573   -1.4483    1.8282 O   0  0  0  0  0  0  0  0  0  0  0  0
    4.3600   -1.2355    0.0466 C   0  0  0  0  0  0  0  0  0  0  0  0
    4.5875   -1.1162   -1.4764 C   0  0  0  0  0  0  0  0  0  0  0  0
    4.9262    0.0011    0.7905 C   0  0  0  0  0  0  0  0  0  0  0  0
    5.3039   -2.3884    0.5161 C   0  0  0  0  0  0  0  0  0  0  0  0
   -2.2008   -0.4474    0.7985 C   0  0  1  0  0  0  0  0  0  0  0  0
   -3.1272    0.8324    0.9755 C   0  0  0  0  0  0  0  0  0  0  0  0
   -2.7047    2.0557    0.1885 C   0  0  0  0  0  0  0  0  0  0  0  0
   -3.2580    3.3272    0.3557 C   0  0  0  0  0  0  0  0  0  0  0  0
   -2.6379    4.4504   -0.2312 C   0  0  0  0  0  0  0  0  0  0  0  0
   -1.4409    4.3079   -0.9356 C   0  0  0  0  0  0  0  0  0  0  0  0
   -0.7996    5.4101   -1.4083 O   0  0  0  0  0  0  0  0  0  0  0  0
   -0.9152    3.0474   -1.1029 C   0  0  0  0  0  0  0  0  0  0  0  0
   -1.5921    1.9558   -0.6288 C   0  0  0  0  0  0  0  0  0  0  0  0
   -0.8472    0.7119   -0.9152 C   0  0  2  0  0  0  0  0  0  0  0  0
   -1.5526   -0.1010   -2.0246 C   0  0  0  0  0  0  0  0  0  0  0  0
   -2.8506   -0.7765   -1.5578 C   0  0  0  0  0  0  0  0  0  0  0  0
   -2.6675   -1.3826   -0.2449 N   0  0  0  0  0  0  0  0  0  0  0  0
   -3.6782   -2.3550    0.1510 C   0  0  0  0  0  0  0  0  0  0  0  0
   -5.0439   -1.8103    0.4270 C   0  0  0  0  0  0  0  0  0  0  0  0
   -6.0687   -2.6940    1.0978 C   0  0  0  0  0  0  0  0  0  0  0  0
   -5.5012   -1.5166    1.8369 C   0  0  0  0  0  0  0  0  0  0  0  0
    0.4925    1.2887   -1.3935 C   0  0  1  0  0  0  0  0  0  0  0  0
    0.3205    2.7372   -1.6026 O   0  0  0  0  0  0  0  0  0  0  0  0
    4.1763    2.9068   -1.0743 H   0  0  0  0  0  0  0  0  0  0  0  0
    2.6790    3.3474   -0.2498 H   0  0  0  0  0  0  0  0  0  0  0  0
    2.6975    3.0123   -2.0180 H   0  0  0  0  0  0  0  0  0  0  0  0
    1.1483    2.5144    1.0094 H   0  0  0  0  0  0  0  0  0  0  0  0
    2.0721    1.2545    1.7498 H   0  0  0  0  0  0  0  0  0  0  0  0
   -0.6847    1.5995    1.9305 H   0  0  0  0  0  0  0  0  0  0  0  0
    0.1681    0.1662    2.4067 H   0  0  0  0  0  0  0  0  0  0  0  0
   -0.1352   -1.9474   -0.5271 H   0  0  0  0  0  0  0  0  0  0  0  0
    0.3303   -1.7645    1.1437 H   0  0  0  0  0  0  0  0  0  0  0  0
    1.7333   -1.0166   -1.3710 H   0  0  0  0  0  0  0  0  0  0  0  0
    1.5280   -3.3596    0.3560 H   0  0  0  0  0  0  0  0  0  0  0  0
    3.1660   -3.7190    0.7047 H   0  0  0  0  0  0  0  0  0  0  0  0
    2.6979   -3.2888   -0.9629 H   0  0  0  0  0  0  0  0  0  0  0  0
    2.9745   -0.5779    2.1169 H   0  0  0  0  0  0  0  0  0  0  0  0
    4.0070   -0.3216   -1.9431 H   0  0  0  0  0  0  0  0  0  0  0  0
    4.3282   -2.0464   -1.9921 H   0  0  0  0  0  0  0  0  0  0  0  0
    5.6415   -0.9121   -1.7000 H   0  0  0  0  0  0  0  0  0  0  0  0
    4.2270    0.8294    0.8862 H   0  0  0  0  0  0  0  0  0  0  0  0
    5.2026   -0.2544    1.8224 H   0  0  0  0  0  0  0  0  0  0  0  0
    5.8336    0.3789    0.3042 H   0  0  0  0  0  0  0  0  0  0  0  0
    5.1709   -3.3018   -0.0749 H   0  0  0  0  0  0  0  0  0  0  0  0
    6.3580   -2.1032    0.4043 H   0  0  0  0  0  0  0  0  0  0  0  0
    5.1409   -2.6326    1.5727 H   0  0  0  0  0  0  0  0  0  0  0  0
   -2.1725   -0.9826    1.7570 H   0  0  0  0  0  0  0  0  0  0  0  0
   -3.0974    1.1029    2.0398 H   0  0  0  0  0  0  0  0  0  0  0  0
   -4.1708    0.6171    0.7393 H   0  0  0  0  0  0  0  0  0  0  0  0
   -4.1390    3.4682    0.9777 H   0  0  0  0  0  0  0  0  0  0  0  0
   -3.0614    5.4407   -0.0857 H   0  0  0  0  0  0  0  0  0  0  0  0
    0.0008    5.0778   -1.8561 H   0  0  0  0  0  0  0  0  0  0  0  0
   -1.7771    0.5336   -2.8923 H   0  0  0  0  0  0  0  0  0  0  0  0
   -0.8714   -0.8803   -2.3908 H   0  0  0  0  0  0  0  0  0  0  0  0
   -3.6752   -0.0551   -1.5611 H   0  0  0  0  0  0  0  0  0  0  0  0
   -3.1104   -1.5426   -2.2993 H   0  0  0  0  0  0  0  0  0  0  0  0
   -3.7669   -3.1094   -0.6415 H   0  0  0  0  0  0  0  0  0  0  0  0
   -3.3091   -2.9114    1.0224 H   0  0  0  0  0  0  0  0  0  0  0  0
   -5.4153   -1.1894   -0.3806 H   0  0  0  0  0  0  0  0  0  0  0  0
   -5.7718   -3.6867    1.4216 H   0  0  0  0  0  0  0  0  0  0  0  0
   -7.0944   -2.6302    0.7526 H   0  0  0  0  0  0  0  0  0  0  0  0
   -4.8195   -1.7126    2.6572 H   0  0  0  0  0  0  0  0  0  0  0  0
   -6.1439   -0.6566    1.9912 H   0  0  0  0  0  0  0  0  0  0  0  0
    0.7765    0.8985   -2.3797 H   0  0  0  0  0  0  0  0  0  0  0  0
  1  2  1  0
  3  2  1  6
  3  4  1  0
  4  5  1  0
  6  5  1  1
  6  7  1  0
  7  8  1  0
  8  9  1  0
  9 10  1  0
  9 11  1  1
  9 12  1  0
 12 13  1  0
 12 14  1  0
 12 15  1  0
  6 16  1  0
 16 17  1  0
 17 18  1  0
 18 19  2  0
 19 20  1  0
 20 21  2  0
 21 22  1  0
 21 23  1  0
 23 24  2  0
 24 25  1  0
 25 26  1  6
 26 27  1  0
 27 28  1  0
 28 29  1  0
 29 30  1  0
 30 31  1  0
 31 32  1  0
 25 33  1  0
 33 34  1  0
  8  3  1  0
 28 16  1  0
 32 30  1  0
 33  3  1  0
 25  6  1  0
 24 18  1  0
 34 23  1  0
  1 35  1  0
  1 36  1  0
  1 37  1  0
  4 38  1  0
  4 39  1  0
  5 40  1  0
  5 41  1  0
  7 42  1  0
  7 43  1  0
  8 44  1  6
 10 45  1  0
 10 46  1  0
 10 47  1  0
 11 48  1  0
 13 49  1  0
 13 50  1  0
 13 51  1  0
 14 52  1  0
 14 53  1  0
 14 54  1  0
 15 55  1  0
 15 56  1  0
 15 57  1  0
 16 58  1  1
 17 59  1  0
 17 60  1  0
 19 61  1  0
 20 62  1  0
 22 63  1  0
 26 64  1  0
 26 65  1  0
 27 66  1  0
 27 67  1  0
 29 68  1  0
 29 69  1  0
 30 70  1  0
 31 71  1  0
 31 72  1  0
 32 73  1  0
 32 74  1  0
 33 75  1  6
M  END
$$$$

     RDKit          3D

 53 57  0  0  0  0  0  0  0  0999 V2000
   -4.3911    3.3881    1.4415 O   0  0  0  0  0  0  0  0  0  0  0  0
   -3.4387    2.7854    0.6732 C   0  0  0  0  0  0  0  0  0  0  0  0
   -2.9918    3.3614   -0.5056 C   0  0  0  0  0  0  0  0  0  0  0  0
   -2.0045    2.7130   -1.2432 C   0  0  0  0  0  0  0  0  0  0  0  0
   -1.4661    1.4877   -0.8096 C   0  0  0  0  0  0  0  0  0  0  0  0
   -1.9464    0.8831    0.3741 C   0  0  0  0  0  0  0  0  0  0  0  0
   -2.9246    1.5700    1.1164 C   0  0  0  0  0  0  0  0  0  0  0  0
   -1.3462   -0.4515    0.8709 C   0  0  1  0  0  0  0  0  0  0  0  0
   -2.3634   -1.3507    1.6306 C   0  0  0  0  0  0  0  0  0  0  0  0
   -3.4698   -1.8925    0.7222 C   0  0  0  0  0  0  0  0  0  0  0  0
   -2.9012   -2.6565   -0.4691 C   0  0  0  0  0  0  0  0  0  0  0  0
   -1.8744   -1.8270   -1.2427 C   0  0  0  0  0  0  0  0  0  0  0  0
   -0.7674   -1.2795   -0.3200 C   0  0  2  0  0  0  0  0  0  0  0  0
   -0.0581   -2.4417    0.1784 O   0  0  0  0  0  0  0  0  0  0  0  0
    0.2763   -0.3975   -1.0489 C   0  0  1  0  0  0  0  0  0  0  0  0
   -0.3896    0.8509   -1.6592 C   0  0  0  0  0  0  0  0  0  0  0  0
    1.4137   -0.1586   -0.0995 N   0  0  0  0  0  0  0  0  0  0  0  0
    2.5650    0.4764   -0.7659 C   0  0  0  0  0  0  0  0  0  0  0  0
    3.8643    0.2026   -0.0113 C   0  0  0  0  0  0  0  0  0  0  0  0
    4.3557   -1.2705    0.0440 C   0  0  0  0  0  0  0  0  0  0  0  0
    5.7896   -0.7209   -0.0966 C   0  0  0  0  0  0  0  0  0  0  0  0
    5.1728    0.5113   -0.7896 C   0  0  0  0  0  0  0  0  0  0  0  0
    0.9999    0.5808    1.1070 C   0  0  0  0  0  0  0  0  0  0  0  0
   -0.1794   -0.0898    1.8299 C   0  0  0  0  0  0  0  0  0  0  0  0
   -4.6627    4.2130    1.0071 H   0  0  0  0  0  0  0  0  0  0  0  0
   -3.3881    4.3072   -0.8596 H   0  0  0  0  0  0  0  0  0  0  0  0
   -1.6466    3.1704   -2.1637 H   0  0  0  0  0  0  0  0  0  0  0  0
   -3.3004    1.1788    2.0568 H   0  0  0  0  0  0  0  0  0  0  0  0
   -1.8365   -2.2094    2.0692 H   0  0  0  0  0  0  0  0  0  0  0  0
   -2.8118   -0.8302    2.4834 H   0  0  0  0  0  0  0  0  0  0  0  0
   -4.1215   -2.5574    1.3008 H   0  0  0  0  0  0  0  0  0  0  0  0
   -4.1009   -1.0715    0.3633 H   0  0  0  0  0  0  0  0  0  0  0  0
   -3.7159   -2.9507   -1.1406 H   0  0  0  0  0  0  0  0  0  0  0  0
   -2.4359   -3.5853   -0.1169 H   0  0  0  0  0  0  0  0  0  0  0  0
   -2.4030   -1.0221   -1.7640 H   0  0  0  0  0  0  0  0  0  0  0  0
   -1.4298   -2.4673   -2.0148 H   0  0  0  0  0  0  0  0  0  0  0  0
    0.8433   -2.1144    0.3837 H   0  0  0  0  0  0  0  0  0  0  0  0
    0.6957   -0.9944   -1.8711 H   0  0  0  0  0  0  0  0  0  0  0  0
   -0.8551    0.5600   -2.6106 H   0  0  0  0  0  0  0  0  0  0  0  0
    0.3663    1.6032   -1.9118 H   0  0  0  0  0  0  0  0  0  0  0  0
    2.6677    0.0706   -1.7806 H   0  0  0  0  0  0  0  0  0  0  0  0
    2.4173    1.5577   -0.8745 H   0  0  0  0  0  0  0  0  0  0  0  0
    3.8793    0.6815    0.9780 H   0  0  0  0  0  0  0  0  0  0  0  0
    4.0385   -1.8888   -0.8040 H   0  0  0  0  0  0  0  0  0  0  0  0
    4.1438   -1.8061    0.9731 H   0  0  0  0  0  0  0  0  0  0  0  0
    6.2710   -0.4935    0.8614 H   0  0  0  0  0  0  0  0  0  0  0  0
    6.4713   -1.3188   -0.7063 H   0  0  0  0  0  0  0  0  0  0  0  0
    5.6465    1.4692   -0.5595 H   0  0  0  0  0  0  0  0  0  0  0  0
    5.0948    0.4062   -1.8781 H   0  0  0  0  0  0  0  0  0  0  0  0
    1.8283    0.6206    1.8232 H   0  0  0  0  0  0  0  0  0  0  0  0
    0.7558    1.6227    0.8677 H   0  0  0  0  0  0  0  0  0  0  0  0
    0.1908   -0.9965    2.3270 H   0  0  0  0  0  0  0  0  0  0  0  0
   -0.5269    0.5715    2.6345 H   0  0  0  0  0  0  0  0  0  0  0  0
  1  2  1  0
  2  3  2  0
  3  4  1  0
  4  5  2  0
  5  6  1  0
  6  7  2  0
  6  8  1  0
  8  9  1  1
  9 10  1  0
 10 11  1  0
 11 12  1  0
 12 13  1  0
 13 14  1  1
 13 15  1  0
 15 16  1  0
 15 17  1  0
 17 18  1  0
 18 19  1  0
 19 20  1  0
 20 21  1  0
 21 22  1  0
 17 23  1  0
 23 24  1  0
  7  2  1  0
 13  8  1  0
 22 19  1  0
 16  5  1  0
 24  8  1  0
  1 25  1  0
  3 26  1  0
  4 27  1  0
  7 28  1  0
  9 29  1  0
  9 30  1  0
 10 31  1  0
 10 32  1  0
 11 33  1  0
 11 34  1  0
 12 35  1  0
 12 36  1  0
 14 37  1  0
 15 38  1  6
 16 39  1  0
 16 40  1  0
 18 41  1  0
 18 42  1  0
 19 43  1  0
 20 44  1  0
 20 45  1  0
 21 46  1  0
 21 47  1  0
 22 48  1  0
 22 49  1  0
 23 50  1  0
 23 51  1  0
 24 52  1  0
 24 53  1  0
M  END
$$$$

     RDKit          3D

 43 47  0  0  0  0  0  0  0  0999 V2000
    4.9306   -1.6649    0.3456 C   0  0  0  0  0  0  0  0  0  0  0  0
    3.8869   -0.8117    0.7942 O   0  0  0  0  0  0  0  0  0  0  0  0
    2.6684   -0.9614    0.1999 C   0  0  0  0  0  0  0  0  0  0  0  0
    2.3508   -1.8580   -0.8316 C   0  0  0  0  0  0  0  0  0  0  0  0
    1.0645   -1.8743   -1.4179 C   0  0  0  0  0  0  0  0  0  0  0  0
    0.0641   -1.0209   -0.9534 C   0  0  0  0  0  0  0  0  0  0  0  0
    0.3852   -0.2023    0.1124 C   0  0  0  0  0  0  0  0  0  0  0  0
    1.6572   -0.1260    0.6387 C   0  0  0  0  0  0  0  0  0  0  0  0
    1.7758    0.8938    1.5536 O   0  0  0  0  0  0  0  0  0  0  0  0
    0.5589    1.7033    1.3567 C   0  0  1  0  0  0  0  0  0  0  0  0
    0.8866    2.9507    0.4825 C   0  0  1  0  0  0  0  0  0  0  0  0
    2.2919    3.1689    0.3633 O   0  0  0  0  0  0  0  0  0  0  0  0
    0.3019    2.9669   -0.9009 C   0  0  0  0  0  0  0  0  0  0  0  0
   -0.7818    2.2571   -1.2520 C   0  0  0  0  0  0  0  0  0  0  0  0
   -1.4876    1.3593   -0.2644 C   0  0  1  0  0  0  0  0  0  0  0  0
   -2.2480    0.1450   -0.8942 C   0  0  1  0  0  0  0  0  0  0  0  0
   -1.2791   -0.8588   -1.6151 C   0  0  0  0  0  0  0  0  0  0  0  0
   -3.0944   -0.4385    0.1821 N   0  0  0  0  0  0  0  0  0  0  0  0
   -4.0566   -1.4200   -0.3108 C   0  0  0  0  0  0  0  0  0  0  0  0
   -2.3212   -0.9738    1.3091 C   0  0  0  0  0  0  0  0  0  0  0  0
   -1.3384    0.0593    1.8802 C   0  0  0  0  0  0  0  0  0  0  0  0
   -0.5273    0.7738    0.7807 C   0  0  1  0  0  0  0  0  0  0  0  0
    5.8290   -1.4273    0.9235 H   0  0  0  0  0  0  0  0  0  0  0  0
    4.6868   -2.7170    0.5271 H   0  0  0  0  0  0  0  0  0  0  0  0
    5.1582   -1.4883   -0.7108 H   0  0  0  0  0  0  0  0  0  0  0  0
    3.0935   -2.5392   -1.2353 H   0  0  0  0  0  0  0  0  0  0  0  0
    0.8705   -2.5419   -2.2545 H   0  0  0  0  0  0  0  0  0  0  0  0
    0.2727    2.0619    2.3537 H   0  0  0  0  0  0  0  0  0  0  0  0
    0.4841    3.8344    0.9931 H   0  0  0  0  0  0  0  0  0  0  0  0
    2.7216    2.3329    0.6331 H   0  0  0  0  0  0  0  0  0  0  0  0
    0.7656    3.6357   -1.6220 H   0  0  0  0  0  0  0  0  0  0  0  0
   -1.1930    2.3597   -2.2528 H   0  0  0  0  0  0  0  0  0  0  0  0
   -2.2285    2.0016    0.2358 H   0  0  0  0  0  0  0  0  0  0  0  0
   -2.9333    0.5407   -1.6567 H   0  0  0  0  0  0  0  0  0  0  0  0
   -1.7464   -1.8399   -1.7444 H   0  0  0  0  0  0  0  0  0  0  0  0
   -1.0948   -0.4682   -2.6251 H   0  0  0  0  0  0  0  0  0  0  0  0
   -4.7711   -1.6774    0.4792 H   0  0  0  0  0  0  0  0  0  0  0  0
   -4.6445   -1.0078   -1.1381 H   0  0  0  0  0  0  0  0  0  0  0  0
   -3.5844   -2.3477   -0.6489 H   0  0  0  0  0  0  0  0  0  0  0  0
   -1.7826   -1.8849    1.0206 H   0  0  0  0  0  0  0  0  0  0  0  0
   -3.0050   -1.2652    2.1163 H   0  0  0  0  0  0  0  0  0  0  0  0
   -1.9063    0.8112    2.4449 H   0  0  0  0  0  0  0  0  0  0  0  0
   -0.6803   -0.4406    2.6028 H   0  0  0  0  0  0  0  0  0  0  0  0
  1  2  1  0
  2  3  1  0
  3  4  2  0
  4  5  1  0
  5  6  2  0
  6  7  1  0
  7  8  2  0
  8  9  1  0
  9 10  1  0
 10 11  1  0
 11 12  1  0
 11 13  1  0
 13 14  2  0
 14 15  1  0
 15 16  1  0
 16 17  1  0
 16 18  1  0
 18 19  1  0
 18 20  1  0
 20 21  1  0
 22 21  1  1
  8  3  1  0
 22 10  1  0
 17  6  1  0
 22  7  1  0
 22 15  1  0
  1 23  1  0
  1 24  1  0
  1 25  1  0
  4 26  1  0
  5 27  1  0
 10 28  1  1
 11 29  1  1
 12 30  1  0
 13 31  1  0
 14 32  1  0
 15 33  1  1
 16 34  1  6
 17 35  1  0
 17 36  1  0
 19 37  1  0
 19 38  1  0
 19 39  1  0
 20 40  1  0
 20 41  1  0
 21 42  1  0
 21 43  1  0
M  END
$$$$

     RDKit          3D

 53 55  0  0  0  0  0  0  0  0999 V2000
   -5.2961   -2.9446   -1.8377 C   0  0  0  0  0  0  0  0  0  0  0  0
   -4.9104   -1.7000   -1.0519 C   0  0  0  0  0  0  0  0  0  0  0  0
   -3.4860   -1.7835   -0.5088 C   0  0  0  0  0  0  0  0  0  0  0  0
   -2.9114   -2.8740   -0.4366 O   0  0  0  0  0  0  0  0  0  0  0  0
   -2.8503   -0.5844   -0.1466 N   0  0  0  0  0  0  0  0  0  0  0  0
   -3.5392    0.6569   -0.0452 C   0  0  0  0  0  0  0  0  0  0  0  0
   -3.1089    1.7849   -0.7511 C   0  0  0  0  0  0  0  0  0  0  0  0
   -3.7923    2.9985   -0.6348 C   0  0  0  0  0  0  0  0  0  0  0  0
   -4.9066    3.0972    0.1952 C   0  0  0  0  0  0  0  0  0  0  0  0
   -5.3364    1.9842    0.9132 C   0  0  0  0  0  0  0  0  0  0  0  0
   -4.6544    0.7709    0.7952 C   0  0  0  0  0  0  0  0  0  0  0  0
   -1.3995   -0.6529    0.1477 C   0  0  0  0  0  0  0  0  0  0  0  0
   -0.8585    0.3791    1.1471 C   0  0  0  0  0  0  0  0  0  0  0  0
    0.6279    0.1370    1.4087 C   0  0  0  0  0  0  0  0  0  0  0  0
    1.4051    0.1815    0.1571 N   0  0  0  0  0  0  0  0  0  0  0  0
    2.8445    0.0294    0.4636 C   0  0  0  0  0  0  0  0  0  0  0  0
    3.7634    0.3659   -0.7235 C   0  0  0  0  0  0  0  0  0  0  0  0
    5.2204    0.3315   -0.3237 C   0  0  0  0  0  0  0  0  0  0  0  0
    5.8619    1.4947    0.1224 C   0  0  0  0  0  0  0  0  0  0  0  0
    7.2021    1.4581    0.5101 C   0  0  0  0  0  0  0  0  0  0  0  0
    7.9113    0.2594    0.4592 C   0  0  0  0  0  0  0  0  0  0  0  0
    7.2809   -0.9041    0.0219 C   0  0  0  0  0  0  0  0  0  0  0  0
    5.9407   -0.8699   -0.3663 C   0  0  0  0  0  0  0  0  0  0  0  0
    0.9359   -0.8514   -0.7813 C   0  0  0  0  0  0  0  0  0  0  0  0
   -0.5433   -0.6672   -1.1241 C   0  0  0  0  0  0  0  0  0  0  0  0
   -4.6098   -3.1077   -2.6752 H   0  0  0  0  0  0  0  0  0  0  0  0
   -5.2707   -3.8365   -1.2030 H   0  0  0  0  0  0  0  0  0  0  0  0
   -6.3093   -2.8422   -2.2387 H   0  0  0  0  0  0  0  0  0  0  0  0
   -5.0073   -0.8315   -1.7110 H   0  0  0  0  0  0  0  0  0  0  0  0
   -5.6039   -1.5940   -0.2130 H   0  0  0  0  0  0  0  0  0  0  0  0
   -2.2540    1.7357   -1.4169 H   0  0  0  0  0  0  0  0  0  0  0  0
   -3.4528    3.8664   -1.1946 H   0  0  0  0  0  0  0  0  0  0  0  0
   -5.4353    4.0426    0.2867 H   0  0  0  0  0  0  0  0  0  0  0  0
   -6.1967    2.0616    1.5731 H   0  0  0  0  0  0  0  0  0  0  0  0
   -4.9827   -0.0735    1.3958 H   0  0  0  0  0  0  0  0  0  0  0  0
   -1.2450   -1.6281    0.6324 H   0  0  0  0  0  0  0  0  0  0  0  0
   -0.9789    1.4024    0.7762 H   0  0  0  0  0  0  0  0  0  0  0  0
   -1.4121    0.3144    2.0916 H   0  0  0  0  0  0  0  0  0  0  0  0
    0.7658   -0.8246    1.9208 H   0  0  0  0  0  0  0  0  0  0  0  0
    0.9781    0.9209    2.0916 H   0  0  0  0  0  0  0  0  0  0  0  0
    3.1026    0.7157    1.2818 H   0  0  0  0  0  0  0  0  0  0  0  0
    3.0554   -0.9836    0.8326 H   0  0  0  0  0  0  0  0  0  0  0  0
    3.6154   -0.3365   -1.5518 H   0  0  0  0  0  0  0  0  0  0  0  0
    3.5188    1.3600   -1.1195 H   0  0  0  0  0  0  0  0  0  0  0  0
    5.3198    2.4366    0.1704 H   0  0  0  0  0  0  0  0  0  0  0  0
    7.6927    2.3654    0.8524 H   0  0  0  0  0  0  0  0  0  0  0  0
    8.9549    0.2319    0.7609 H   0  0  0  0  0  0  0  0  0  0  0  0
    7.8334   -1.8392   -0.0168 H   0  0  0  0  0  0  0  0  0  0  0  0
    5.4619   -1.7864   -0.7035 H   0  0  0  0  0  0  0  0  0  0  0  0
    1.0973   -1.8555   -0.3677 H   0  0  0  0  0  0  0  0  0  0  0  0
    1.4925   -0.7958   -1.7226 H   0  0  0  0  0  0  0  0  0  0  0  0
   -0.6690    0.2623   -1.6893 H   0  0  0  0  0  0  0  0  0  0  0  0
   -0.8616   -1.4781   -1.7901 H   0  0  0  0  0  0  0  0  0  0  0  0
  1  2  1  0
  2  3  1  0
  3  4  2  0
  3  5  1  0
  5  6  1  0
  6  7  2  0
  7  8  1  0
  8  9  2  0
  9 10  1  0
 10 11  2  0
  5 12  1  0
 12 13  1  0
 13 14  1  0
 14 15  1  0
 15 16  1  0
 16 17  1  0
 17 18  1  0
 18 19  2  0
 19 20  1  0
 20 21  2  0
 21 22  1  0
 22 23  2  0
 15 24  1  0
 24 25  1  0
 11  6  1  0
 25 12  1  0
 23 18  1  0
  1 26  1  0
  1 27  1  0
  1 28  1  0
  2 29  1  0
  2 30  1  0
  7 31  1  0
  8 32  1  0
  9 33  1  0
 10 34  1  0
 11 35  1  0
 12 36  1  0
 13 37  1  0
 13 38  1  0
 14 39  1  0
 14 40  1  0
 16 41  1  0
 16 42  1  0
 17 43  1  0
 17 44  1  0
 19 45  1  0
 20 46  1  0
 21 47  1  0
 22 48  1  0
 23 49  1  0
 24 50  1  0
 24 51  1  0
 25 52  1  0
 25 53  1  0
M  END
$$$$

     RDKit          3D

 40 44  0  0  0  0  0  0  0  0999 V2000
    3.7288    0.1881    0.9844 C   0  0  0  0  0  0  0  0  0  0  0  0
    2.3532   -0.2851    1.1189 N   0  0  0  0  0  0  0  0  0  0  0  0
    1.5350    0.6776    1.8667 C   0  0  0  0  0  0  0  0  0  0  0  0
    0.0960    0.1782    2.0719 C   0  0  0  0  0  0  0  0  0  0  0  0
   -0.5197   -0.3808    0.7719 C   0  0  2  0  0  0  0  0  0  0  0  0
   -0.6965    0.7212   -0.2110 C   0  0  0  0  0  0  0  0  0  0  0  0
    0.2438    1.1758   -1.1165 C   0  0  0  0  0  0  0  0  0  0  0  0
   -0.1306    2.2492   -1.9290 C   0  0  0  0  0  0  0  0  0  0  0  0
   -1.4243    2.8071   -1.8241 C   0  0  0  0  0  0  0  0  0  0  0  0
   -2.3579    2.2727   -0.9350 C   0  0  0  0  0  0  0  0  0  0  0  0
   -3.6185    2.7787   -0.8899 O   0  0  0  0  0  0  0  0  0  0  0  0
   -1.9808    1.2139   -0.1451 C   0  0  0  0  0  0  0  0  0  0  0  0
   -2.7716    0.5036    0.7250 O   0  0  0  0  0  0  0  0  0  0  0  0
   -2.0090   -0.7311    0.9277 C   0  0  1  0  0  0  0  0  0  0  0  0
   -2.5035   -1.7970   -0.0656 C   0  0  0  0  0  0  0  0  0  0  0  0
   -3.6797   -1.8597   -0.4311 O   0  0  0  0  0  0  0  0  0  0  0  0
   -1.5141   -2.8544   -0.5029 C   0  0  0  0  0  0  0  0  0  0  0  0
   -0.2068   -2.2221   -0.9613 C   0  0  0  0  0  0  0  0  0  0  0  0
    0.4251   -1.4391    0.1943 C   0  0  1  0  0  0  0  0  0  0  0  0
    1.7533   -0.7102   -0.1719 C   0  0  1  0  0  0  0  0  0  0  0  0
    1.5480    0.4299   -1.2367 C   0  0  0  0  0  0  0  0  0  0  0  0
    4.1849    0.3088    1.9735 H   0  0  0  0  0  0  0  0  0  0  0  0
    3.7997    1.1485    0.4641 H   0  0  0  0  0  0  0  0  0  0  0  0
    4.3419   -0.5440    0.4476 H   0  0  0  0  0  0  0  0  0  0  0  0
    1.9756    0.8406    2.8584 H   0  0  0  0  0  0  0  0  0  0  0  0
    1.5258    1.6560    1.3708 H   0  0  0  0  0  0  0  0  0  0  0  0
   -0.5070    0.9976    2.4843 H   0  0  0  0  0  0  0  0  0  0  0  0
    0.1014   -0.6155    2.8312 H   0  0  0  0  0  0  0  0  0  0  0  0
    0.5627    2.6528   -2.6634 H   0  0  0  0  0  0  0  0  0  0  0  0
   -1.7092    3.6381   -2.4643 H   0  0  0  0  0  0  0  0  0  0  0  0
   -4.1146    2.2053   -0.2742 H   0  0  0  0  0  0  0  0  0  0  0  0
   -2.2276   -1.1098    1.9332 H   0  0  0  0  0  0  0  0  0  0  0  0
   -1.3531   -3.5425    0.3339 H   0  0  0  0  0  0  0  0  0  0  0  0
   -1.9524   -3.4243   -1.3294 H   0  0  0  0  0  0  0  0  0  0  0  0
    0.4818   -3.0089   -1.2907 H   0  0  0  0  0  0  0  0  0  0  0  0
   -0.3937   -1.5817   -1.8303 H   0  0  0  0  0  0  0  0  0  0  0  0
    0.6422   -2.1820    0.9778 H   0  0  0  0  0  0  0  0  0  0  0  0
    2.4312   -1.4538   -0.6123 H   0  0  0  0  0  0  0  0  0  0  0  0
    2.3806    1.1401   -1.2224 H   0  0  0  0  0  0  0  0  0  0  0  0
    1.5594   -0.0418   -2.2284 H   0  0  0  0  0  0  0  0  0  0  0  0
  1  2  1  0
  2  3  1  0
  3  4  1  0
  5  4  1  1
  5  6  1  0
  6  7  2  0
  7  8  1  0
  8  9  2  0
  9 10  1  0
 10 11  1  0
 10 12  2  0
 12 13  1  0
 13 14  1  0
 14 15  1  0
 15 16  2  0
 15 17  1  0
 17 18  1  0
 18 19  1  0
 19 20  1  0
 20 21  1  0
 20  2  1  0
 14  5  1  0
 19  5  1  0
 12  6  1  0
 21  7  1  0
  1 22  1  0
  1 23  1  0
  1 24  1  0
  3 25  1  0
  3 26  1  0
  4 27  1  0
  4 28  1  0
  8 29  1  0
  9 30  1  0
 11 31  1  0
 14 32  1  1
 17 33  1  0
 17 34  1  0
 18 35  1  0
 18 36  1  0
 19 37  1  1
 20 38  1  6
 21 39  1  0
 21 40  1  0
M  END
$$$$

     RDKit          3D

 57 58  0  0  0  0  0  0  0  0999 V2000
   -4.2156   -1.2903   -0.0252 C   0  0  0  0  0  0  0  0  0  0  0  0
   -3.0832   -0.3309    0.3315 C   0  0  0  0  0  0  0  0  0  0  0  0
   -1.7345   -0.7552   -0.2956 C   0  0  2  0  0  0  0  0  0  0  0  0
   -1.4391   -2.0966    0.1819 O   0  0  0  0  0  0  0  0  0  0  0  0
   -1.2954   -3.0833   -0.7449 C   0  0  0  0  0  0  0  0  0  0  0  0
   -0.9898   -4.3788   -0.0577 C   0  0  0  0  0  0  0  0  0  0  0  0
   -1.3891   -2.9522   -1.9559 O   0  0  0  0  0  0  0  0  0  0  0  0
   -0.4955    0.2600   -0.0586 C   0  0  0  0  0  0  0  0  0  0  0  0
    0.8253   -0.5202   -0.4883 C   0  0  0  0  0  0  0  0  0  0  0  0
    2.2506    0.1054   -0.3091 C   0  0  2  0  0  0  0  0  0  0  0  0
    2.4183    1.4061   -1.1093 C   0  0  0  0  0  0  0  0  0  0  0  0
    3.3132   -0.8845   -0.7044 N   0  0  0  0  0  0  0  0  0  0  0  0
    3.2692   -2.1099    0.1058 C   0  0  0  0  0  0  0  0  0  0  0  0
    4.6694   -0.3259   -0.6072 C   0  0  0  0  0  0  0  0  0  0  0  0
   -0.8574    1.4587   -0.9960 C   0  0  0  0  0  0  0  0  0  0  0  0
   -1.5934    2.5692   -0.5330 C   0  0  0  0  0  0  0  0  0  0  0  0
   -1.9599    3.6157   -1.3849 C   0  0  0  0  0  0  0  0  0  0  0  0
   -1.6248    3.5677   -2.7325 C   0  0  0  0  0  0  0  0  0  0  0  0
   -0.9393    2.4659   -3.2297 C   0  0  0  0  0  0  0  0  0  0  0  0
   -0.5730    1.4200   -2.3761 C   0  0  0  0  0  0  0  0  0  0  0  0
   -0.2642    0.6393    1.4417 C   0  0  0  0  0  0  0  0  0  0  0  0
    0.3241    1.8678    1.8112 C   0  0  0  0  0  0  0  0  0  0  0  0
    0.5812    2.1948    3.1468 C   0  0  0  0  0  0  0  0  0  0  0  0
    0.2785    1.2907    4.1558 C   0  0  0  0  0  0  0  0  0  0  0  0
   -0.2679    0.0573    3.8254 C   0  0  0  0  0  0  0  0  0  0  0  0
   -0.5235   -0.2665    2.4876 C   0  0  0  0  0  0  0  0  0  0  0  0
   -4.3272   -1.3789   -1.1104 H   0  0  0  0  0  0  0  0  0  0  0  0
   -4.0416   -2.2880    0.3890 H   0  0  0  0  0  0  0  0  0  0  0  0
   -5.1620   -0.9215    0.3835 H   0  0  0  0  0  0  0  0  0  0  0  0
   -3.0157   -0.2989    1.4227 H   0  0  0  0  0  0  0  0  0  0  0  0
   -3.3754    0.6652   -0.0088 H   0  0  0  0  0  0  0  0  0  0  0  0
   -1.9086   -0.8056   -1.3787 H   0  0  0  0  0  0  0  0  0  0  0  0
   -1.8056   -4.6397    0.6211 H   0  0  0  0  0  0  0  0  0  0  0  0
   -0.8919   -5.1715   -0.8049 H   0  0  0  0  0  0  0  0  0  0  0  0
   -0.0465   -4.2944    0.4877 H   0  0  0  0  0  0  0  0  0  0  0  0
    0.7304   -0.8809   -1.5198 H   0  0  0  0  0  0  0  0  0  0  0  0
    0.8282   -1.4227    0.1316 H   0  0  0  0  0  0  0  0  0  0  0  0
    2.4016    0.3430    0.7506 H   0  0  0  0  0  0  0  0  0  0  0  0
    3.3660    1.9044   -0.8813 H   0  0  0  0  0  0  0  0  0  0  0  0
    1.6581    2.1455   -0.8617 H   0  0  0  0  0  0  0  0  0  0  0  0
    2.3841    1.2188   -2.1877 H   0  0  0  0  0  0  0  0  0  0  0  0
    4.1206   -2.7626   -0.1227 H   0  0  0  0  0  0  0  0  0  0  0  0
    2.3878   -2.7145   -0.1261 H   0  0  0  0  0  0  0  0  0  0  0  0
    3.2868   -1.8942    1.1799 H   0  0  0  0  0  0  0  0  0  0  0  0
    4.8407    0.4442   -1.3653 H   0  0  0  0  0  0  0  0  0  0  0  0
    4.8713    0.0925    0.3852 H   0  0  0  0  0  0  0  0  0  0  0  0
    5.4253   -1.0936   -0.8128 H   0  0  0  0  0  0  0  0  0  0  0  0
   -1.9133    2.6320    0.5057 H   0  0  0  0  0  0  0  0  0  0  0  0
   -2.5185    4.4619   -0.9933 H   0  0  0  0  0  0  0  0  0  0  0  0
   -1.9121    4.3778   -3.3970 H   0  0  0  0  0  0  0  0  0  0  0  0
   -0.6942    2.4099   -4.2875 H   0  0  0  0  0  0  0  0  0  0  0  0
   -0.0659    0.5689   -2.8245 H   0  0  0  0  0  0  0  0  0  0  0  0
    0.6035    2.6020    1.0593 H   0  0  0  0  0  0  0  0  0  0  0  0
    1.0261    3.1558    3.3921 H   0  0  0  0  0  0  0  0  0  0  0  0
    0.4790    1.5408    5.1938 H   0  0  0  0  0  0  0  0  0  0  0  0
   -0.4911   -0.6641    4.6076 H   0  0  0  0  0  0  0  0  0  0  0  0
   -0.9242   -1.2563    2.2936 H   0  0  0  0  0  0  0  0  0  0  0  0
  1  2  1  0
  2  3  1  0
  3  4  1  0
  4  5  1  0
  5  6  1  0
  5  7  2  0
  3  8  1  0
  8  9  1  0
  9 10  1  0
 10 11  1  0
 10 12  1  0
 12 13  1  0
 12 14  1  0
  8 15  1  0
 15 16  2  0
 16 17  1  0
 17 18  2  0
 18 19  1  0
 19 20  2  0
  8 21  1  0
 21 22  2  0
 22 23  1  0
 23 24  2  0
 24 25  1  0
 25 26  2  0
 20 15  1  0
 26 21  1  0
  1 27  1  0
  1 28  1  0
  1 29  1  0
  2 30  1  0
  2 31  1  0
  3 32  1  6
  6 33  1  0
  6 34  1  0
  6 35  1  0
  9 36  1  0
  9 37  1  0
 10 38  1  1
 11 39  1  0
 11 40  1  0
 11 41  1  0
 13 42  1  0
 13 43  1  0
 13 44  1  0
 14 45  1  0
 14 46  1  0
 14 47  1  0
 16 48  1  0
 17 49  1  0
 18 50  1  0
 19 51  1  0
 20 52  1  0
 22 53  1  0
 23 54  1  0
 24 55  1  0
 25 56  1  0
 26 57  1  0
M  END
$$$$

     RDKit          3D

 39 40  0  0  0  0  0  0  0  0999 V2000
    2.9352    3.1031    0.1406 C   0  0  0  0  0  0  0  0  0  0  0  0
    1.9627    2.3872    1.0571 C   0  0  0  0  0  0  0  0  0  0  0  0
    1.2901    1.3801    0.2929 O   0  0  0  0  0  0  0  0  0  0  0  0
    0.3803    0.6469    0.9991 C   0  0  0  0  0  0  0  0  0  0  0  0
    0.1318    0.8254    2.1866 O   0  0  0  0  0  0  0  0  0  0  0  0
   -0.2500   -0.4605    0.1224 C   0  0  0  0  0  0  0  0  0  0  0  0
    0.7829   -1.6023   -0.0225 C   0  0  0  0  0  0  0  0  0  0  0  0
    1.2615   -2.2603    1.1295 C   0  0  0  0  0  0  0  0  0  0  0  0
    2.2014   -3.2901    1.0422 C   0  0  0  0  0  0  0  0  0  0  0  0
    2.6884   -3.6844   -0.1987 C   0  0  0  0  0  0  0  0  0  0  0  0
    2.2377   -3.0461   -1.3497 C   0  0  0  0  0  0  0  0  0  0  0  0
    1.2970   -2.0144   -1.2633 C   0  0  0  0  0  0  0  0  0  0  0  0
   -1.5247   -1.0112    0.8188 C   0  0  0  0  0  0  0  0  0  0  0  0
   -2.6578    0.0172    0.8978 C   0  0  0  0  0  0  0  0  0  0  0  0
   -2.9914    0.5484   -0.4268 N   0  0  0  0  0  0  0  0  0  0  0  0
   -4.1015    1.4975   -0.3326 C   0  0  0  0  0  0  0  0  0  0  0  0
   -1.8299    1.1754   -1.0601 C   0  0  0  0  0  0  0  0  0  0  0  0
   -0.7040    0.1539   -1.2290 C   0  0  0  0  0  0  0  0  0  0  0  0
    3.4759    3.8858    0.6800 H   0  0  0  0  0  0  0  0  0  0  0  0
    3.6597    2.3974   -0.2793 H   0  0  0  0  0  0  0  0  0  0  0  0
    2.4061    3.5563   -0.7042 H   0  0  0  0  0  0  0  0  0  0  0  0
    2.5088    1.9207    1.8846 H   0  0  0  0  0  0  0  0  0  0  0  0
    1.2316    3.1016    1.4516 H   0  0  0  0  0  0  0  0  0  0  0  0
    0.9103   -1.9721    2.1195 H   0  0  0  0  0  0  0  0  0  0  0  0
    2.5527   -3.7812    1.9460 H   0  0  0  0  0  0  0  0  0  0  0  0
    3.4193   -4.4852   -0.2691 H   0  0  0  0  0  0  0  0  0  0  0  0
    2.6191   -3.3495   -2.3215 H   0  0  0  0  0  0  0  0  0  0  0  0
    0.9846   -1.5470   -2.1929 H   0  0  0  0  0  0  0  0  0  0  0  0
   -1.8867   -1.8938    0.2720 H   0  0  0  0  0  0  0  0  0  0  0  0
   -1.3094   -1.3537    1.8387 H   0  0  0  0  0  0  0  0  0  0  0  0
   -3.5361   -0.4851    1.3222 H   0  0  0  0  0  0  0  0  0  0  0  0
   -2.3933    0.8269    1.5888 H   0  0  0  0  0  0  0  0  0  0  0  0
   -4.3890    1.8533   -1.3282 H   0  0  0  0  0  0  0  0  0  0  0  0
   -4.9869    1.0133    0.0944 H   0  0  0  0  0  0  0  0  0  0  0  0
   -3.8512    2.3671    0.2858 H   0  0  0  0  0  0  0  0  0  0  0  0
   -2.1065    1.5392   -2.0575 H   0  0  0  0  0  0  0  0  0  0  0  0
   -1.4817    2.0442   -0.4874 H   0  0  0  0  0  0  0  0  0  0  0  0
   -1.0678   -0.6402   -1.8964 H   0  0  0  0  0  0  0  0  0  0  0  0
    0.1309    0.6360   -1.7529 H   0  0  0  0  0  0  0  0  0  0  0  0
  1  2  1  0
  2  3  1  0
  3  4  1  0
  4  5  2  0
  4  6  1  0
  6  7  1  0
  7  8  2  0
  8  9  1  0
  9 10  2  0
 10 11  1  0
 11 12  2  0
  6 13  1  0
 13 14  1  0
 14 15  1  0
 15 16  1  0
 15 17  1  0
 17 18  1  0
 18  6  1  0
 12  7  1  0
  1 19  1  0
  1 20  1  0
  1 21  1  0
  2 22  1  0
  2 23  1  0
  8 24  1  0
  9 25  1  0
 10 26  1  0
 11 27  1  0
 12 28  1  0
 13 29  1  0
 13 30  1  0
 14 31  1  0
 14 32  1  0
 16 33  1  0
 16 34  1  0
 16 35  1  0
 17 36  1  0
 17 37  1  0
 18 38  1  0
 18 39  1  0
M  END
$$$$

     RDKit          3D

 40 41  0  0  0  0  0  0  0  0999 V2000
    0.7481    2.9645    0.4335 C   0  0  0  0  0  0  0  0  0  0  0  0
   -0.0426    1.7733    0.9704 C   0  0  0  0  0  0  0  0  0  0  0  0
   -0.0340    0.4965    0.0541 C   0  0  2  0  0  0  0  0  0  0  0  0
    1.4207   -0.0290   -0.1089 C   0  0  0  0  0  0  0  0  0  0  0  0
    2.0070   -0.2907   -1.3599 C   0  0  0  0  0  0  0  0  0  0  0  0
    3.3178   -0.7733   -1.4671 C   0  0  0  0  0  0  0  0  0  0  0  0
    4.0766   -1.0128   -0.3260 C   0  0  0  0  0  0  0  0  0  0  0  0
    3.5132   -0.7692    0.9173 C   0  0  0  0  0  0  0  0  0  0  0  0
    4.2093   -0.9924    2.0689 O   0  0  0  0  0  0  0  0  0  0  0  0
    2.2101   -0.2886    1.0313 C   0  0  0  0  0  0  0  0  0  0  0  0
   -0.7138    0.9002   -1.2932 C   0  0  0  0  0  0  0  0  0  0  0  0
   -1.3485   -0.2422   -2.0922 C   0  0  0  0  0  0  0  0  0  0  0  0
   -2.7894   -0.5129   -1.6637 C   0  0  0  0  0  0  0  0  0  0  0  0
   -2.9608   -1.1594   -0.2884 C   0  0  0  0  0  0  0  0  0  0  0  0
   -2.3075   -0.4355    0.8169 N   0  0  0  0  0  0  0  0  0  0  0  0
   -2.8425   -0.9280    2.0926 C   0  0  0  0  0  0  0  0  0  0  0  0
   -0.8412   -0.6379    0.7791 C   0  0  0  0  0  0  0  0  0  0  0  0
    1.8045    2.7202    0.2911 H   0  0  0  0  0  0  0  0  0  0  0  0
    0.3436    3.3238   -0.5169 H   0  0  0  0  0  0  0  0  0  0  0  0
    0.6945    3.7942    1.1463 H   0  0  0  0  0  0  0  0  0  0  0  0
    0.3381    1.5369    1.9712 H   0  0  0  0  0  0  0  0  0  0  0  0
   -1.0788    2.1017    1.1271 H   0  0  0  0  0  0  0  0  0  0  0  0
    1.4656   -0.1311   -2.2876 H   0  0  0  0  0  0  0  0  0  0  0  0
    3.7422   -0.9623   -2.4501 H   0  0  0  0  0  0  0  0  0  0  0  0
    5.0898   -1.3869   -0.4264 H   0  0  0  0  0  0  0  0  0  0  0  0
    5.0981   -1.3059    1.8354 H   0  0  0  0  0  0  0  0  0  0  0  0
    1.8202   -0.1211    2.0322 H   0  0  0  0  0  0  0  0  0  0  0  0
    0.0042    1.4265   -1.9346 H   0  0  0  0  0  0  0  0  0  0  0  0
   -1.4980    1.6458   -1.1006 H   0  0  0  0  0  0  0  0  0  0  0  0
   -1.3730    0.0607   -3.1468 H   0  0  0  0  0  0  0  0  0  0  0  0
   -0.7513   -1.1588   -2.0477 H   0  0  0  0  0  0  0  0  0  0  0  0
   -3.2507   -1.1756   -2.4069 H   0  0  0  0  0  0  0  0  0  0  0  0
   -3.3627    0.4226   -1.6978 H   0  0  0  0  0  0  0  0  0  0  0  0
   -4.0434   -1.1964   -0.1057 H   0  0  0  0  0  0  0  0  0  0  0  0
   -2.6281   -2.2055   -0.3257 H   0  0  0  0  0  0  0  0  0  0  0  0
   -3.9248   -0.7648    2.1469 H   0  0  0  0  0  0  0  0  0  0  0  0
   -2.6441   -1.9959    2.2399 H   0  0  0  0  0  0  0  0  0  0  0  0
   -2.4072   -0.3730    2.9315 H   0  0  0  0  0  0  0  0  0  0  0  0
   -0.4629   -0.6972    1.8099 H   0  0  0  0  0  0  0  0  0  0  0  0
   -0.5983   -1.6210    0.3504 H   0  0  0  0  0  0  0  0  0  0  0  0
  1  2  1  0
  3  2  1  1
  3  4  1  0
  4  5  2  0
  5  6  1  0
  6  7  2  0
  7  8  1  0
  8  9  1  0
  8 10  2  0
  3 11  1  0
 11 12  1  0
 12 13  1  0
 13 14  1  0
 14 15  1  0
 15 16  1  0
 15 17  1  0
 17  3  1  0
 10  4  1  0
  1 18  1  0
  1 19  1  0
  1 20  1  0
  2 21  1  0
  2 22  1  0
  5 23  1  0
  6 24  1  0
  7 25  1  0
  9 26  1  0
 10 27  1  0
 11 28  1  0
 11 29  1  0
 12 30  1  0
 12 31  1  0
 13 32  1  0
 13 33  1  0
 14 34  1  0
 14 35  1  0
 16 36  1  0
 16 37  1  0
 16 38  1  0
 17 39  1  0
 17 40  1  0
M  END
$$$$

     RDKit          3D

 50 51  0  0  0  0  0  0  0  0999 V2000
   -0.4545   -3.5079   -1.3315 C   0  0  0  0  0  0  0  0  0  0  0  0
   -0.6645   -2.4493   -0.2605 C   0  0  0  0  0  0  0  0  0  0  0  0
   -0.7396   -1.0352   -0.8468 C   0  0  0  0  0  0  0  0  0  0  0  0
   -1.0594   -0.8994   -2.0332 O   0  0  0  0  0  0  0  0  0  0  0  0
   -0.5748    0.1769    0.1567 C   0  0  0  0  0  0  0  0  0  0  0  0
    0.8191    0.1083    0.8858 C   0  0  0  0  0  0  0  0  0  0  0  0
    2.0899    0.2154   -0.0031 C   0  0  1  0  0  0  0  0  0  0  0  0
    3.3050    0.5771    0.8689 C   0  0  0  0  0  0  0  0  0  0  0  0
    2.2614   -1.0056   -0.8146 N   0  0  0  0  0  0  0  0  0  0  0  0
    2.9748   -2.0961   -0.1475 C   0  0  0  0  0  0  0  0  0  0  0  0
    2.8992   -0.7125   -2.1013 C   0  0  0  0  0  0  0  0  0  0  0  0
   -1.7770    0.0209    1.1520 C   0  0  0  0  0  0  0  0  0  0  0  0
   -1.6231   -0.2065    2.5305 C   0  0  0  0  0  0  0  0  0  0  0  0
   -2.7379   -0.3501    3.3629 C   0  0  0  0  0  0  0  0  0  0  0  0
   -4.0244   -0.2696    2.8372 C   0  0  0  0  0  0  0  0  0  0  0  0
   -4.2023   -0.0434    1.4768 C   0  0  0  0  0  0  0  0  0  0  0  0
   -3.0924    0.1003    0.6430 C   0  0  0  0  0  0  0  0  0  0  0  0
   -0.6458    1.6047   -0.4921 C   0  0  0  0  0  0  0  0  0  0  0  0
   -0.3459    1.8568   -1.8418 C   0  0  0  0  0  0  0  0  0  0  0  0
   -0.3830    3.1523   -2.3697 C   0  0  0  0  0  0  0  0  0  0  0  0
   -0.7055    4.2333   -1.5572 C   0  0  0  0  0  0  0  0  0  0  0  0
   -0.9825    4.0214   -0.2124 C   0  0  0  0  0  0  0  0  0  0  0  0
   -0.9450    2.7271    0.3141 C   0  0  0  0  0  0  0  0  0  0  0  0
    0.4505   -3.3078   -1.9138 H   0  0  0  0  0  0  0  0  0  0  0  0
   -1.3000   -3.5380   -2.0267 H   0  0  0  0  0  0  0  0  0  0  0  0
   -0.3576   -4.4973   -0.8742 H   0  0  0  0  0  0  0  0  0  0  0  0
    0.1482   -2.5209    0.4618 H   0  0  0  0  0  0  0  0  0  0  0  0
   -1.6020   -2.6543    0.2661 H   0  0  0  0  0  0  0  0  0  0  0  0
    0.8637    0.9260    1.6206 H   0  0  0  0  0  0  0  0  0  0  0  0
    0.8962   -0.8069    1.4846 H   0  0  0  0  0  0  0  0  0  0  0  0
    1.9525    1.0698   -0.6734 H   0  0  0  0  0  0  0  0  0  0  0  0
    3.4636   -0.1463    1.6755 H   0  0  0  0  0  0  0  0  0  0  0  0
    3.1574    1.5580    1.3349 H   0  0  0  0  0  0  0  0  0  0  0  0
    4.2201    0.6388    0.2707 H   0  0  0  0  0  0  0  0  0  0  0  0
    2.9038   -3.0120   -0.7453 H   0  0  0  0  0  0  0  0  0  0  0  0
    4.0381   -1.8771    0.0008 H   0  0  0  0  0  0  0  0  0  0  0  0
    2.5314   -2.3295    0.8256 H   0  0  0  0  0  0  0  0  0  0  0  0
    2.9443   -1.6143   -2.7225 H   0  0  0  0  0  0  0  0  0  0  0  0
    3.9171   -0.3259   -1.9809 H   0  0  0  0  0  0  0  0  0  0  0  0
    2.3145    0.0207   -2.6671 H   0  0  0  0  0  0  0  0  0  0  0  0
   -0.6438   -0.2740    2.9946 H   0  0  0  0  0  0  0  0  0  0  0  0
   -2.5998   -0.5243    4.4272 H   0  0  0  0  0  0  0  0  0  0  0  0
   -4.8878   -0.3807    3.4878 H   0  0  0  0  0  0  0  0  0  0  0  0
   -5.2041    0.0242    1.0604 H   0  0  0  0  0  0  0  0  0  0  0  0
   -3.2593    0.2822   -0.4194 H   0  0  0  0  0  0  0  0  0  0  0  0
   -0.0585    1.0556   -2.5177 H   0  0  0  0  0  0  0  0  0  0  0  0
   -0.1553    3.3105   -3.4208 H   0  0  0  0  0  0  0  0  0  0  0  0
   -0.7359    5.2373   -1.9708 H   0  0  0  0  0  0  0  0  0  0  0  0
   -1.2293    4.8611    0.4317 H   0  0  0  0  0  0  0  0  0  0  0  0
   -1.1601    2.6062    1.3744 H   0  0  0  0  0  0  0  0  0  0  0  0
  1  2  1  0
  2  3  1  0
  3  4  2  0
  3  5  1  0
  5  6  1  0
  6  7  1  0
  7  8  1  0
  7  9  1  0
  9 10  1  0
  9 11  1  0
  5 12  1  0
 12 13  2  0
 13 14  1  0
 14 15  2  0
 15 16  1  0
 16 17  2  0
  5 18  1  0
 18 19  2  0
 19 20  1  0
 20 21  2  0
 21 22  1  0
 22 23  2  0
 17 12  1  0
 23 18  1  0
  1 24  1  0
  1 25  1  0
  1 26  1  0
  2 27  1  0
  2 28  1  0
  6 29  1  0
  6 30  1  0
  7 31  1  6
  8 32  1  0
  8 33  1  0
  8 34  1  0
 10 35  1  0
 10 36  1  0
 10 37  1  0
 11 38  1  0
 11 39  1  0
 11 40  1  0
 13 41  1  0
 14 42  1  0
 15 43  1  0
 16 44  1  0
 17 45  1  0
 19 46  1  0
 20 47  1  0
 21 48  1  0
 22 49  1  0
 23 50  1  0
M  END
$$$$

     RDKit          3D

 52 57  0  0  0  0  0  0  0  0999 V2000
   -2.1843   -1.0535   -1.6190 C   0  0  0  0  0  0  0  0  0  0  0  0
   -1.4824    0.0742   -0.8341 N   0  0  2  0  0  0  0  0  0  0  0  0
   -2.6048    1.0822   -0.4467 C   0  0  0  0  0  0  0  0  0  0  0  0
   -3.6480    0.5829    0.5091 C   0  0  0  0  0  0  0  0  0  0  0  0
   -4.9785    1.2910    0.5890 C   0  0  0  0  0  0  0  0  0  0  0  0
   -4.9060   -0.1020    0.0310 C   0  0  0  0  0  0  0  0  0  0  0  0
   -0.5226    0.8091   -1.7861 C   0  0  0  0  0  0  0  0  0  0  0  0
    0.7688    0.0361   -2.0551 C   0  0  0  0  0  0  0  0  0  0  0  0
    1.4507   -0.4784   -0.7683 C   0  0  2  0  0  0  0  0  0  0  0  0
    1.8170    0.6901    0.0788 C   0  0  0  0  0  0  0  0  0  0  0  0
    1.0351    1.2887    1.0499 C   0  0  0  0  0  0  0  0  0  0  0  0
    1.5767    2.4032    1.6939 C   0  0  0  0  0  0  0  0  0  0  0  0
    2.8707    2.8609    1.3592 C   0  0  0  0  0  0  0  0  0  0  0  0
    3.6455    2.1848    0.4154 C   0  0  0  0  0  0  0  0  0  0  0  0
    4.9096    2.6051    0.1579 O   0  0  0  0  0  0  0  0  0  0  0  0
    3.1077    1.0843   -0.2032 C   0  0  0  0  0  0  0  0  0  0  0  0
    3.7264    0.2391   -1.0916 O   0  0  0  0  0  0  0  0  0  0  0  0
    2.8868   -0.9615   -1.0483 C   0  0  1  0  0  0  0  0  0  0  0  0
    3.4435   -1.9216    0.0173 C   0  0  0  0  0  0  0  0  0  0  0  0
    4.6442   -1.9863    0.2803 O   0  0  0  0  0  0  0  0  0  0  0  0
    2.4665   -2.8592    0.6883 C   0  0  0  0  0  0  0  0  0  0  0  0
    1.2391   -2.0961    1.1838 C   0  0  0  0  0  0  0  0  0  0  0  0
    0.5106   -1.4072    0.0102 C   0  0  2  0  0  0  0  0  0  0  0  0
    0.0770   -2.4644   -0.8603 O   0  0  0  0  0  0  0  0  0  0  0  0
   -0.7184   -0.5080    0.4566 C   0  0  1  0  0  0  0  0  0  0  0  0
   -0.2640    0.6339    1.4349 C   0  0  0  0  0  0  0  0  0  0  0  0
   -1.4680   -1.5764   -2.2516 H   0  0  0  0  0  0  0  0  0  0  0  0
   -2.9354   -0.6061   -2.2778 H   0  0  0  0  0  0  0  0  0  0  0  0
   -2.6572   -1.7346   -0.9072 H   0  0  0  0  0  0  0  0  0  0  0  0
   -3.0687    1.4018   -1.3897 H   0  0  0  0  0  0  0  0  0  0  0  0
   -2.1202    1.9745   -0.0380 H   0  0  0  0  0  0  0  0  0  0  0  0
   -3.2338    0.2802    1.4634 H   0  0  0  0  0  0  0  0  0  0  0  0
   -5.1983    2.1006   -0.0995 H   0  0  0  0  0  0  0  0  0  0  0  0
   -5.4359    1.4199    1.5657 H   0  0  0  0  0  0  0  0  0  0  0  0
   -5.3185   -0.9037    0.6361 H   0  0  0  0  0  0  0  0  0  0  0  0
   -5.1005   -0.2143   -1.0299 H   0  0  0  0  0  0  0  0  0  0  0  0
   -0.3033    1.7861   -1.3420 H   0  0  0  0  0  0  0  0  0  0  0  0
   -1.0635    0.9925   -2.7225 H   0  0  0  0  0  0  0  0  0  0  0  0
    0.5713   -0.8032   -2.7325 H   0  0  0  0  0  0  0  0  0  0  0  0
    1.4408    0.7010   -2.6152 H   0  0  0  0  0  0  0  0  0  0  0  0
    1.0273    2.9199    2.4791 H   0  0  0  0  0  0  0  0  0  0  0  0
    3.2894    3.7258    1.8706 H   0  0  0  0  0  0  0  0  0  0  0  0
    5.3197    1.9402   -0.4283 H   0  0  0  0  0  0  0  0  0  0  0  0
    2.9606   -1.4739   -2.0146 H   0  0  0  0  0  0  0  0  0  0  0  0
    2.9657   -3.3320    1.5415 H   0  0  0  0  0  0  0  0  0  0  0  0
    2.2013   -3.6497   -0.0210 H   0  0  0  0  0  0  0  0  0  0  0  0
    1.5543   -1.3795    1.9493 H   0  0  0  0  0  0  0  0  0  0  0  0
    0.5633   -2.8070    1.6751 H   0  0  0  0  0  0  0  0  0  0  0  0
   -0.2490   -3.2202   -0.3330 H   0  0  0  0  0  0  0  0  0  0  0  0
   -1.4670   -1.1361    0.9529 H   0  0  0  0  0  0  0  0  0  0  0  0
   -0.1083    0.1745    2.4202 H   0  0  0  0  0  0  0  0  0  0  0  0
   -1.0327    1.3927    1.5887 H   0  0  0  0  0  0  0  0  0  0  0  0
  2  1  1  6
  2  3  1  0
  3  4  1  0
  4  5  1  0
  5  6  1  0
  2  7  1  0
  7  8  1  0
  9  8  1  6
  9 10  1  0
 10 11  2  0
 11 12  1  0
 12 13  2  0
 13 14  1  0
 14 15  1  0
 14 16  2  0
 16 17  1  0
 17 18  1  0
 18 19  1  0
 19 20  2  0
 19 21  1  0
 21 22  1  0
 22 23  1  0
 23 24  1  6
 23 25  1  0
 25 26  1  0
 25  2  1  0
  6  4  1  0
 18  9  1  0
 23  9  1  0
 16 10  1  0
 26 11  1  0
  1 27  1  0
  1 28  1  0
  1 29  1  0
  3 30  1  0
  3 31  1  0
  4 32  1  0
  5 33  1  0
  5 34  1  0
  6 35  1  0
  6 36  1  0
  7 37  1  0
  7 38  1  0
  8 39  1  0
  8 40  1  0
 12 41  1  0
 13 42  1  0
 15 43  1  0
 18 44  1  6
 21 45  1  0
 21 46  1  0
 22 47  1  0
 22 48  1  0
 24 49  1  0
 25 50  1  1
 26 51  1  0
 26 52  1  0
M  CHG  1   2   1
M  END
$$$$

     RDKit          3D

 40 44  0  0  0  0  0  0  0  0999 V2000
    3.9149   -0.7107    0.2114 C   0  0  0  0  0  0  0  0  0  0  0  0
    2.7384    0.0378   -0.2227 N   0  0  0  0  0  0  0  0  0  0  0  0
    2.0948   -0.6078   -1.3729 C   0  0  0  0  0  0  0  0  0  0  0  0
    0.8878    0.1930   -1.8842 C   0  0  0  0  0  0  0  0  0  0  0  0
   -0.0502    0.6417   -0.7461 C   0  0  2  0  0  0  0  0  0  0  0  0
   -0.6977   -0.5507   -0.1229 C   0  0  0  0  0  0  0  0  0  0  0  0
   -0.1768   -1.3325    0.8935 C   0  0  0  0  0  0  0  0  0  0  0  0
   -0.9433   -2.4212    1.3203 C   0  0  0  0  0  0  0  0  0  0  0  0
   -2.2064   -2.6719    0.7452 C   0  0  0  0  0  0  0  0  0  0  0  0
   -2.7219   -1.8127   -0.2241 C   0  0  0  0  0  0  0  0  0  0  0  0
   -3.9653   -2.0327   -0.7288 O   0  0  0  0  0  0  0  0  0  0  0  0
   -1.9621   -0.7387   -0.6265 C   0  0  0  0  0  0  0  0  0  0  0  0
   -2.3570    0.2681   -1.4667 O   0  0  0  0  0  0  0  0  0  0  0  0
   -1.3345    1.3214   -1.2715 C   0  0  1  0  0  0  0  0  0  0  0  0
   -1.8881    2.4519   -0.3539 C   0  0  1  0  0  0  0  0  0  0  0  0
   -3.3104    2.4121   -0.2656 O   0  0  0  0  0  0  0  0  0  0  0  0
   -1.3376    2.5031    1.0424 C   0  0  0  0  0  0  0  0  0  0  0  0
   -0.1244    2.0281    1.3656 C   0  0  0  0  0  0  0  0  0  0  0  0
    0.7622    1.3785    0.3293 C   0  0  1  0  0  0  0  0  0  0  0  0
    1.7971    0.3453    0.8883 C   0  0  1  0  0  0  0  0  0  0  0  0
    1.1052   -0.8975    1.5547 C   0  0  0  0  0  0  0  0  0  0  0  0
    4.4027   -0.2136    1.0569 H   0  0  0  0  0  0  0  0  0  0  0  0
    4.6559   -0.7495   -0.5950 H   0  0  0  0  0  0  0  0  0  0  0  0
    3.6826   -1.7404    0.5010 H   0  0  0  0  0  0  0  0  0  0  0  0
    1.7900   -1.6333   -1.1308 H   0  0  0  0  0  0  0  0  0  0  0  0
    2.8143   -0.6888   -2.1974 H   0  0  0  0  0  0  0  0  0  0  0  0
    1.2543    1.0844   -2.4112 H   0  0  0  0  0  0  0  0  0  0  0  0
    0.3528   -0.4107   -2.6288 H   0  0  0  0  0  0  0  0  0  0  0  0
   -0.5840   -3.0691    2.1165 H   0  0  0  0  0  0  0  0  0  0  0  0
   -2.7985   -3.5177    1.0844 H   0  0  0  0  0  0  0  0  0  0  0  0
   -4.1059   -1.3509   -1.4121 H   0  0  0  0  0  0  0  0  0  0  0  0
   -1.1667    1.7543   -2.2660 H   0  0  0  0  0  0  0  0  0  0  0  0
   -1.6368    3.4155   -0.8144 H   0  0  0  0  0  0  0  0  0  0  0  0
   -3.5539    1.4680   -0.2843 H   0  0  0  0  0  0  0  0  0  0  0  0
   -1.9380    3.0081    1.7952 H   0  0  0  0  0  0  0  0  0  0  0  0
    0.2535    2.1509    2.3772 H   0  0  0  0  0  0  0  0  0  0  0  0
    1.3238    2.2040   -0.1345 H   0  0  0  0  0  0  0  0  0  0  0  0
    2.3822    0.8503    1.6694 H   0  0  0  0  0  0  0  0  0  0  0  0
    0.8556   -0.6185    2.5874 H   0  0  0  0  0  0  0  0  0  0  0  0
    1.7913   -1.7474    1.6219 H   0  0  0  0  0  0  0  0  0  0  0  0
  1  2  1  0
  2  3  1  0
  3  4  1  0
  5  4  1  6
  5  6  1  0
  6  7  2  0
  7  8  1  0
  8  9  2  0
  9 10  1  0
 10 11  1  0
 10 12  2  0
 12 13  1  0
 13 14  1  0
 14 15  1  0
 15 16  1  0
 15 17  1  0
 17 18  2  0
 18 19  1  0
 19 20  1  0
 20 21  1  0
 20  2  1  0
 14  5  1  0
 19  5  1  0
 12  6  1  0
 21  7  1  0
  1 22  1  0
  1 23  1  0
  1 24  1  0
  3 25  1  0
  3 26  1  0
  4 27  1  0
  4 28  1  0
  8 29  1  0
  9 30  1  0
 11 31  1  0
 14 32  1  6
 15 33  1  6
 16 34  1  0
 17 35  1  0
 18 36  1  0
 19 37  1  6
 20 38  1  1
 21 39  1  0
 21 40  1  0
M  END
$$$$

     RDKit          3D

 60 65  0  0  0  0  0  0  0  0999 V2000
    5.7838   -0.0332    1.2430 C   0  0  0  0  0  0  0  0  0  0  0  0
    4.8663   -1.0981    0.8723 N   0  0  0  0  0  0  0  0  0  0  0  0
    4.0498   -1.5471    1.9991 C   0  0  0  0  0  0  0  0  0  0  0  0
    2.6569   -0.9153    2.1005 C   0  0  0  0  0  0  0  0  0  0  0  0
    1.9592   -0.7794    0.7227 C   0  0  2  0  0  0  0  0  0  0  0  0
    1.9661    0.6739    0.3553 C   0  0  0  0  0  0  0  0  0  0  0  0
    2.9378    1.3420   -0.3664 C   0  0  0  0  0  0  0  0  0  0  0  0
    2.7435    2.7094   -0.5818 C   0  0  0  0  0  0  0  0  0  0  0  0
    1.5879    3.3542   -0.0845 C   0  0  0  0  0  0  0  0  0  0  0  0
    0.5987    2.6277    0.5940 C   0  0  0  0  0  0  0  0  0  0  0  0
   -0.5500    3.2188    1.0308 O   0  0  0  0  0  0  0  0  0  0  0  0
    0.7985    1.2789    0.7843 C   0  0  0  0  0  0  0  0  0  0  0  0
   -0.0800    0.3678    1.3197 O   0  0  0  0  0  0  0  0  0  0  0  0
    0.4230   -0.9161    0.8004 C   0  0  1  0  0  0  0  0  0  0  0  0
   -0.2866   -1.3171   -0.5431 C   0  0  1  0  0  0  0  0  0  0  0  0
   -1.1977   -0.3146   -1.0070 O   0  0  0  0  0  0  0  0  0  0  0  0
   -2.5818   -0.6105   -0.8196 C   0  0  2  0  0  0  0  0  0  0  0  0
   -3.3060    0.3167   -1.6367 O   0  0  0  0  0  0  0  0  0  0  0  0
   -4.7210    0.1605   -1.5974 C   0  0  2  0  0  0  0  0  0  0  0  0
   -5.4076    1.0877   -2.6185 C   0  0  0  0  0  0  0  0  0  0  0  0
   -4.8432    1.6456   -3.5481 O   0  0  0  0  0  0  0  0  0  0  0  0
   -6.7525    1.1917   -2.4556 O   0  0  0  0  0  0  0  0  0  0  0  0
   -5.2174    0.4461   -0.1815 C   0  0  1  0  0  0  0  0  0  0  0  0
   -6.6393    0.2407   -0.0881 O   0  0  0  0  0  0  0  0  0  0  0  0
   -4.5260   -0.5031    0.7926 C   0  0  2  0  0  0  0  0  0  0  0  0
   -4.9265   -0.1771    2.1345 O   0  0  0  0  0  0  0  0  0  0  0  0
   -3.0023   -0.4772    0.6637 C   0  0  1  0  0  0  0  0  0  0  0  0
   -2.4904   -1.5644    1.4574 O   0  0  0  0  0  0  0  0  0  0  0  0
    0.6314   -1.5845   -1.7113 C   0  0  0  0  0  0  0  0  0  0  0  0
    1.9645   -1.7067   -1.6370 C   0  0  0  0  0  0  0  0  0  0  0  0
    2.7125   -1.5931   -0.3366 C   0  0  1  0  0  0  0  0  0  0  0  0
    4.1424   -0.9360   -0.4231 C   0  0  1  0  0  0  0  0  0  0  0  0
    4.0430    0.5305   -0.9880 C   0  0  0  0  0  0  0  0  0  0  0  0
    5.2619    0.8929    1.5007 H   0  0  0  0  0  0  0  0  0  0  0  0
    6.4990    0.1646    0.4375 H   0  0  0  0  0  0  0  0  0  0  0  0
    6.3873   -0.3244    2.1096 H   0  0  0  0  0  0  0  0  0  0  0  0
    3.9266   -2.6336    1.9081 H   0  0  0  0  0  0  0  0  0  0  0  0
    4.5775   -1.4191    2.9534 H   0  0  0  0  0  0  0  0  0  0  0  0
    2.0631   -1.5575    2.7562 H   0  0  0  0  0  0  0  0  0  0  0  0
    2.7421    0.0482    2.6148 H   0  0  0  0  0  0  0  0  0  0  0  0
    3.4689    3.2843   -1.1568 H   0  0  0  0  0  0  0  0  0  0  0  0
    1.4655    4.4187   -0.2696 H   0  0  0  0  0  0  0  0  0  0  0  0
   -0.5636    4.1288    0.6903 H   0  0  0  0  0  0  0  0  0  0  0  0
    0.1639   -1.6817    1.5439 H   0  0  0  0  0  0  0  0  0  0  0  0
   -0.8189   -2.2631   -0.3760 H   0  0  0  0  0  0  0  0  0  0  0  0
   -2.7764   -1.6261   -1.1959 H   0  0  0  0  0  0  0  0  0  0  0  0
   -4.9813   -0.8594   -1.9108 H   0  0  0  0  0  0  0  0  0  0  0  0
   -7.0717    0.7508   -1.6313 H   0  0  0  0  0  0  0  0  0  0  0  0
   -5.0219    1.4868    0.1043 H   0  0  0  0  0  0  0  0  0  0  0  0
   -6.8311    0.1403    0.8717 H   0  0  0  0  0  0  0  0  0  0  0  0
   -4.8929   -1.5256    0.6325 H   0  0  0  0  0  0  0  0  0  0  0  0
   -4.5266    0.6814    2.3749 H   0  0  0  0  0  0  0  0  0  0  0  0
   -2.6094    0.4550    1.0863 H   0  0  0  0  0  0  0  0  0  0  0  0
   -2.8552   -1.4399    2.3563 H   0  0  0  0  0  0  0  0  0  0  0  0
    0.1475   -1.6918   -2.6809 H   0  0  0  0  0  0  0  0  0  0  0  0
    2.5309   -1.9334   -2.5362 H   0  0  0  0  0  0  0  0  0  0  0  0
    2.8237   -2.6359   -0.0038 H   0  0  0  0  0  0  0  0  0  0  0  0
    4.7329   -1.5047   -1.1551 H   0  0  0  0  0  0  0  0  0  0  0  0
    3.8263    0.4593   -2.0620 H   0  0  0  0  0  0  0  0  0  0  0  0
    4.9951    1.0660   -0.9149 H   0  0  0  0  0  0  0  0  0  0  0  0
  1  2  1  0
  2  3  1  0
  3  4  1  0
  5  4  1  1
  5  6  1  0
  6  7  2  0
  7  8  1  0
  8  9  2  0
  9 10  1  0
 10 11  1  0
 10 12  2  0
 12 13  1  0
 13 14  1  0
 14 15  1  0
 15 16  1  0
 16 17  1  0
 17 18  1  0
 18 19  1  0
 19 20  1  0
 20 21  2  0
 20 22  1  0
 19 23  1  0
 23 24  1  0
 23 25  1  0
 25 26  1  0
 25 27  1  0
 27 28  1  0
 15 29  1  0
 29 30  2  0
 30 31  1  0
 31 32  1  0
 32 33  1  0
 32  2  1  0
 14  5  1  0
 27 17  1  0
 31  5  1  0
 12  6  1  0
 33  7  1  0
  1 34  1  0
  1 35  1  0
  1 36  1  0
  3 37  1  0
  3 38  1  0
  4 39  1  0
  4 40  1  0
  8 41  1  0
  9 42  1  0
 11 43  1  0
 14 44  1  1
 15 45  1  1
 17 46  1  6
 19 47  1  6
 22 48  1  0
 23 49  1  1
 24 50  1  0
 25 51  1  6
 26 52  1  0
 27 53  1  1
 28 54  1  0
 29 55  1  0
 30 56  1  0
 31 57  1  1
 32 58  1  6
 33 59  1  0
 33 60  1  0
M  END
$$$$

     RDKit          3D

 53 58  0  0  0  0  0  0  0  0999 V2000
   -5.1459    2.4506    0.2374 O   0  0  0  0  0  0  0  0  0  0  0  0
   -3.8164    2.2493    0.0395 C   0  0  0  0  0  0  0  0  0  0  0  0
   -2.9942    3.3213   -0.3123 C   0  0  0  0  0  0  0  0  0  0  0  0
   -1.6190    3.1203   -0.5717 C   0  0  0  0  0  0  0  0  0  0  0  0
   -1.0534    1.8497   -0.4409 C   0  0  0  0  0  0  0  0  0  0  0  0
   -1.8990    0.8323   -0.0445 C   0  0  0  0  0  0  0  0  0  0  0  0
   -3.2537    1.0005    0.1456 C   0  0  0  0  0  0  0  0  0  0  0  0
   -3.9118   -0.1951    0.3459 O   0  0  0  0  0  0  0  0  0  0  0  0
   -2.9001   -1.1987   -0.0601 C   0  0  1  0  0  0  0  0  0  0  0  0
   -3.1637   -1.6200   -1.5370 C   0  0  1  0  0  0  0  0  0  0  0  0
   -3.6263   -0.5351   -2.3509 O   0  0  0  0  0  0  0  0  0  0  0  0
   -1.9275   -2.1845   -2.2323 C   0  0  0  0  0  0  0  0  0  0  0  0
   -0.7403   -1.2136   -2.1324 C   0  0  0  0  0  0  0  0  0  0  0  0
   -0.3463   -1.0114   -0.6673 C   0  0  1  0  0  0  0  0  0  0  0  0
    0.1373   -2.3033   -0.2221 O   0  0  0  0  0  0  0  0  0  0  0  0
    0.7975    0.0376   -0.4246 C   0  0  1  0  0  0  0  0  0  0  0  0
    0.3703    1.5031   -0.7898 C   0  0  0  0  0  0  0  0  0  0  0  0
    1.2664   -0.1884    0.9867 N   0  0  0  0  0  0  0  0  0  0  0  0
    2.4981    0.5388    1.3481 C   0  0  0  0  0  0  0  0  0  0  0  0
    3.7040    0.0933    0.5255 C   0  0  0  0  0  0  0  0  0  0  0  0
    5.0944    0.4713    1.1071 C   0  0  0  0  0  0  0  0  0  0  0  0
    5.6072   -0.8780    0.5636 C   0  0  0  0  0  0  0  0  0  0  0  0
    4.1550   -1.3875    0.6613 C   0  0  0  0  0  0  0  0  0  0  0  0
    0.2117    0.0758    1.9878 C   0  0  0  0  0  0  0  0  0  0  0  0
   -1.1005   -0.6818    1.7070 C   0  0  0  0  0  0  0  0  0  0  0  0
   -1.5184   -0.5797    0.2193 C   0  0  1  0  0  0  0  0  0  0  0  0
   -5.5119    1.5909    0.5169 H   0  0  0  0  0  0  0  0  0  0  0  0
   -3.4236    4.3144   -0.4174 H   0  0  0  0  0  0  0  0  0  0  0  0
   -1.0103    3.9644   -0.8877 H   0  0  0  0  0  0  0  0  0  0  0  0
   -3.0391   -2.0846    0.5726 H   0  0  0  0  0  0  0  0  0  0  0  0
   -3.9680   -2.3644   -1.5513 H   0  0  0  0  0  0  0  0  0  0  0  0
   -4.3563   -0.1090   -1.8660 H   0  0  0  0  0  0  0  0  0  0  0  0
   -2.1441   -2.3534   -3.2943 H   0  0  0  0  0  0  0  0  0  0  0  0
   -1.6658   -3.1559   -1.7975 H   0  0  0  0  0  0  0  0  0  0  0  0
   -0.9902   -0.2657   -2.6208 H   0  0  0  0  0  0  0  0  0  0  0  0
    0.1024   -1.6465   -2.6858 H   0  0  0  0  0  0  0  0  0  0  0  0
    0.8292   -2.0939    0.4430 H   0  0  0  0  0  0  0  0  0  0  0  0
    1.6263   -0.2448   -1.0842 H   0  0  0  0  0  0  0  0  0  0  0  0
    1.0482    2.2342   -0.3393 H   0  0  0  0  0  0  0  0  0  0  0  0
    0.4722    1.6156   -1.8773 H   0  0  0  0  0  0  0  0  0  0  0  0
    2.3674    1.6233    1.2667 H   0  0  0  0  0  0  0  0  0  0  0  0
    2.7168    0.3377    2.4054 H   0  0  0  0  0  0  0  0  0  0  0  0
    3.6281    0.4125   -0.5239 H   0  0  0  0  0  0  0  0  0  0  0  0
    5.5616    1.3616    0.6781 H   0  0  0  0  0  0  0  0  0  0  0  0
    5.1308    0.5432    2.2005 H   0  0  0  0  0  0  0  0  0  0  0  0
    6.3372   -1.3972    1.1893 H   0  0  0  0  0  0  0  0  0  0  0  0
    5.9879   -0.8245   -0.4627 H   0  0  0  0  0  0  0  0  0  0  0  0
    3.8334   -2.0561   -0.1414 H   0  0  0  0  0  0  0  0  0  0  0  0
    3.9167   -1.8493    1.6268 H   0  0  0  0  0  0  0  0  0  0  0  0
    0.0126    1.1518    2.0655 H   0  0  0  0  0  0  0  0  0  0  0  0
    0.5641   -0.2412    2.9776 H   0  0  0  0  0  0  0  0  0  0  0  0
   -0.9715   -1.7371    1.9808 H   0  0  0  0  0  0  0  0  0  0  0  0
   -1.8795   -0.2925    2.3758 H   0  0  0  0  0  0  0  0  0  0  0  0
  1  2  1  0
  2  3  2  0
  3  4  1  0
  4  5  2  0
  5  6  1  0
  6  7  2  0
  7  8  1  0
  8  9  1  0
  9 10  1  0
 10 11  1  0
 10 12  1  0
 12 13  1  0
 13 14  1  0
 14 15  1  1
 14 16  1  0
 16 17  1  0
 16 18  1  0
 18 19  1  0
 19 20  1  0
 20 21  1  0
 21 22  1  0
 22 23  1  0
 18 24  1  0
 24 25  1  0
 26 25  1  1
  7  2  1  0
 26  9  1  0
 17  5  1  0
 23 20  1  0
 26  6  1  0
 26 14  1  0
  1 27  1  0
  3 28  1  0
  4 29  1  0
  9 30  1  1
 10 31  1  1
 11 32  1  0
 12 33  1  0
 12 34  1  0
 13 35  1  0
 13 36  1  0
 15 37  1  0
 16 38  1  6
 17 39  1  0
 17 40  1  0
 19 41  1  0
 19 42  1  0
 20 43  1  0
 21 44  1  0
 21 45  1  0
 22 46  1  0
 22 47  1  0
 23 48  1  0
 23 49  1  0
 24 50  1  0
 24 51  1  0
 25 52  1  0
 25 53  1  0
M  END
$$$$

     RDKit          3D

 50 55  0  0  0  0  0  0  0  0999 V2000
   -4.2081   -1.9512   -0.7363 C   0  0  0  0  0  0  0  0  0  0  0  0
   -2.9546   -1.9232   -0.2479 C   0  0  0  0  0  0  0  0  0  0  0  0
   -1.8718   -2.7755   -0.8654 C   0  0  0  0  0  0  0  0  0  0  0  0
   -0.6428   -1.9368   -1.2335 C   0  0  0  0  0  0  0  0  0  0  0  0
   -0.0550   -1.2706    0.0164 C   0  0  1  0  0  0  0  0  0  0  0  0
    0.4378   -2.3520    0.8441 O   0  0  0  0  0  0  0  0  0  0  0  0
    1.1497   -0.3009   -0.2637 C   0  0  1  0  0  0  0  0  0  0  0  0
    0.7397    0.9542   -1.1116 C   0  0  0  0  0  0  0  0  0  0  0  0
   -0.6311    1.4978   -0.8068 C   0  0  0  0  0  0  0  0  0  0  0  0
   -1.1761    2.6467   -1.3857 C   0  0  0  0  0  0  0  0  0  0  0  0
   -2.5130    3.0173   -1.1161 C   0  0  0  0  0  0  0  0  0  0  0  0
   -3.3193    2.2238   -0.2984 C   0  0  0  0  0  0  0  0  0  0  0  0
   -4.6179    2.5655   -0.0874 O   0  0  0  0  0  0  0  0  0  0  0  0
   -2.7773    1.0892    0.2544 C   0  0  0  0  0  0  0  0  0  0  0  0
   -1.4547    0.7747    0.0345 C   0  0  0  0  0  0  0  0  0  0  0  0
   -1.0913   -0.4525    0.7967 C   0  0  2  0  0  0  0  0  0  0  0  0
   -0.4989   -0.0199    2.1574 C   0  0  0  0  0  0  0  0  0  0  0  0
    0.8611    0.6832    1.9947 C   0  0  0  0  0  0  0  0  0  0  0  0
    1.7745   -0.0254    1.0760 N   0  0  0  0  0  0  0  0  0  0  0  0
    3.0631    0.6777    1.0087 C   0  0  0  0  0  0  0  0  0  0  0  0
    4.1035   -0.1598    0.3264 C   0  0  0  0  0  0  0  0  0  0  0  0
    4.4841    0.0792   -1.1148 C   0  0  0  0  0  0  0  0  0  0  0  0
    5.4404    0.4495   -0.0177 C   0  0  0  0  0  0  0  0  0  0  0  0
   -2.5200   -1.0300    0.9204 C   0  0  1  0  0  0  0  0  0  0  0  0
   -3.4256    0.1375    1.0079 O   0  0  0  0  0  0  0  0  0  0  0  0
   -4.4809   -2.5867   -1.5733 H   0  0  0  0  0  0  0  0  0  0  0  0
   -4.9994   -1.3412   -0.3111 H   0  0  0  0  0  0  0  0  0  0  0  0
   -2.2348   -3.2768   -1.7712 H   0  0  0  0  0  0  0  0  0  0  0  0
   -1.5987   -3.5704   -0.1609 H   0  0  0  0  0  0  0  0  0  0  0  0
    0.1049   -2.6022   -1.6831 H   0  0  0  0  0  0  0  0  0  0  0  0
   -0.9167   -1.2006   -1.9976 H   0  0  0  0  0  0  0  0  0  0  0  0
    1.1999   -1.9670    1.3293 H   0  0  0  0  0  0  0  0  0  0  0  0
    1.8837   -0.8724   -0.8445 H   0  0  0  0  0  0  0  0  0  0  0  0
    1.4800    1.7543   -1.0185 H   0  0  0  0  0  0  0  0  0  0  0  0
    0.7408    0.6534   -2.1676 H   0  0  0  0  0  0  0  0  0  0  0  0
   -0.5825    3.2586   -2.0610 H   0  0  0  0  0  0  0  0  0  0  0  0
   -2.9288    3.9120   -1.5721 H   0  0  0  0  0  0  0  0  0  0  0  0
   -4.9854    1.8633    0.4823 H   0  0  0  0  0  0  0  0  0  0  0  0
   -0.3721   -0.9025    2.7980 H   0  0  0  0  0  0  0  0  0  0  0  0
   -1.1778    0.6511    2.7000 H   0  0  0  0  0  0  0  0  0  0  0  0
    1.3194    0.7400    2.9903 H   0  0  0  0  0  0  0  0  0  0  0  0
    0.7096    1.7199    1.6693 H   0  0  0  0  0  0  0  0  0  0  0  0
    3.4277    0.8492    2.0297 H   0  0  0  0  0  0  0  0  0  0  0  0
    2.9716    1.6659    0.5443 H   0  0  0  0  0  0  0  0  0  0  0  0
    4.1211   -1.1773    0.7036 H   0  0  0  0  0  0  0  0  0  0  0  0
    4.7189   -0.7868   -1.7236 H   0  0  0  0  0  0  0  0  0  0  0  0
    4.0031    0.8843   -1.6578 H   0  0  0  0  0  0  0  0  0  0  0  0
    6.3249   -0.1641    0.1136 H   0  0  0  0  0  0  0  0  0  0  0  0
    5.6009    1.5031    0.1812 H   0  0  0  0  0  0  0  0  0  0  0  0
   -2.6256   -1.6056    1.8483 H   0  0  0  0  0  0  0  0  0  0  0  0
  1  2  2  3
  2  3  1  0
  3  4  1  0
  4  5  1  0
  5  6  1  1
  5  7  1  0
  7  8  1  0
  8  9  1  0
  9 10  2  0
 10 11  1  0
 11 12  2  0
 12 13  1  0
 12 14  1  0
 14 15  2  0
 15 16  1  0
 16 17  1  1
 17 18  1  0
 18 19  1  0
 19 20  1  0
 20 21  1  0
 21 22  1  0
 22 23  1  0
 16 24  1  0
 24 25  1  0
 24  2  1  0
 16  5  1  0
 23 21  1  0
 19  7  1  0
 15  9  1  0
 25 14  1  0
  1 26  1  0
  1 27  1  0
  3 28  1  0
  3 29  1  0
  4 30  1  0
  4 31  1  0
  6 32  1  0
  7 33  1  6
  8 34  1  0
  8 35  1  0
 10 36  1  0
 11 37  1  0
 13 38  1  0
 17 39  1  0
 17 40  1  0
 18 41  1  0
 18 42  1  0
 20 43  1  0
 20 44  1  0
 21 45  1  0
 22 46  1  0
 22 47  1  0
 23 48  1  0
 23 49  1  0
 24 50  1  1
M  END
$$$$

     RDKit          3D

 45 49  0  0  0  0  0  0  0  0999 V2000
   -4.9744   -0.6608    0.3251 C   0  0  0  0  0  0  0  0  0  0  0  0
   -4.1116   -0.0335    1.1357 C   0  0  0  0  0  0  0  0  0  0  0  0
   -2.8671   -0.6545    1.6991 C   0  0  0  0  0  0  0  0  0  0  0  0
   -1.6642    0.1289    1.3791 N   0  0  0  0  0  0  0  0  0  0  0  0
   -0.5218   -0.3498    2.1805 C   0  0  0  0  0  0  0  0  0  0  0  0
    0.7593    0.4664    1.9357 C   0  0  0  0  0  0  0  0  0  0  0  0
    1.0244    0.6974    0.4302 C   0  0  2  0  0  0  0  0  0  0  0  0
    1.3694   -0.6043   -0.2014 C   0  0  0  0  0  0  0  0  0  0  0  0
    0.4817   -1.5278   -0.7202 C   0  0  0  0  0  0  0  0  0  0  0  0
    1.0302   -2.7037   -1.2378 C   0  0  0  0  0  0  0  0  0  0  0  0
    2.4297   -2.9005   -1.2362 C   0  0  0  0  0  0  0  0  0  0  0  0
    3.2866   -1.9113   -0.7507 C   0  0  0  0  0  0  0  0  0  0  0  0
    4.6322   -2.0899   -0.8113 O   0  0  0  0  0  0  0  0  0  0  0  0
    2.7373   -0.7566   -0.2498 C   0  0  0  0  0  0  0  0  0  0  0  0
    3.4045    0.3563    0.2021 O   0  0  0  0  0  0  0  0  0  0  0  0
    2.3674    1.3968    0.1736 C   0  0  1  0  0  0  0  0  0  0  0  0
    2.4490    2.1275   -1.1783 C   0  0  0  0  0  0  0  0  0  0  0  0
    3.5196    2.2925   -1.7691 O   0  0  0  0  0  0  0  0  0  0  0  0
    1.1786    2.7312   -1.7308 C   0  0  0  0  0  0  0  0  0  0  0  0
    0.0310    1.7275   -1.6814 C   0  0  0  0  0  0  0  0  0  0  0  0
   -0.2264    1.2770   -0.2390 C   0  0  2  0  0  0  0  0  0  0  0  0
   -0.6360    2.4625    0.4750 O   0  0  0  0  0  0  0  0  0  0  0  0
   -1.3525    0.1914   -0.0896 C   0  0  1  0  0  0  0  0  0  0  0  0
   -0.9805   -1.1681   -0.7833 C   0  0  0  0  0  0  0  0  0  0  0  0
   -4.8213   -1.6881    0.0099 H   0  0  0  0  0  0  0  0  0  0  0  0
   -5.8611   -0.1510   -0.0401 H   0  0  0  0  0  0  0  0  0  0  0  0
   -4.3153    0.9942    1.4291 H   0  0  0  0  0  0  0  0  0  0  0  0
   -3.0037   -0.6685    2.7886 H   0  0  0  0  0  0  0  0  0  0  0  0
   -2.7671   -1.7015    1.3920 H   0  0  0  0  0  0  0  0  0  0  0  0
   -0.7639   -0.2658    3.2476 H   0  0  0  0  0  0  0  0  0  0  0  0
   -0.3307   -1.4136    1.9931 H   0  0  0  0  0  0  0  0  0  0  0  0
    0.6672    1.4360    2.4427 H   0  0  0  0  0  0  0  0  0  0  0  0
    1.6003   -0.0484    2.4187 H   0  0  0  0  0  0  0  0  0  0  0  0
    0.3885   -3.4716   -1.6644 H   0  0  0  0  0  0  0  0  0  0  0  0
    2.8481   -3.8162   -1.6464 H   0  0  0  0  0  0  0  0  0  0  0  0
    5.0285   -1.2492   -0.5104 H   0  0  0  0  0  0  0  0  0  0  0  0
    2.5954    2.1342    0.9520 H   0  0  0  0  0  0  0  0  0  0  0  0
    1.3555    3.0250   -2.7715 H   0  0  0  0  0  0  0  0  0  0  0  0
    0.9532    3.6400   -1.1633 H   0  0  0  0  0  0  0  0  0  0  0  0
    0.2601    0.8800   -2.3364 H   0  0  0  0  0  0  0  0  0  0  0  0
   -0.8671    2.2119   -2.0841 H   0  0  0  0  0  0  0  0  0  0  0  0
   -1.2650    2.1405    1.1582 H   0  0  0  0  0  0  0  0  0  0  0  0
   -2.2448    0.5886   -0.5896 H   0  0  0  0  0  0  0  0  0  0  0  0
   -1.5785   -1.9938   -0.3866 H   0  0  0  0  0  0  0  0  0  0  0  0
   -1.2444   -1.0771   -1.8453 H   0  0  0  0  0  0  0  0  0  0  0  0
  1  2  2  3
  2  3  1  0
  3  4  1  0
  4  5  1  0
  5  6  1  0
  7  6  1  1
  7  8  1  0
  8  9  2  0
  9 10  1  0
 10 11  2  0
 11 12  1  0
 12 13  1  0
 12 14  2  0
 14 15  1  0
 15 16  1  0
 16 17  1  0
 17 18  2  0
 17 19  1  0
 19 20  1  0
 20 21  1  0
 21 22  1  1
 21 23  1  0
 23 24  1  0
 23  4  1  0
 16  7  1  0
 21  7  1  0
 14  8  1  0
 24  9  1  0
  1 25  1  0
  1 26  1  0
  2 27  1  0
  3 28  1  0
  3 29  1  0
  5 30  1  0
  5 31  1  0
  6 32  1  0
  6 33  1  0
 10 34  1  0
 11 35  1  0
 13 36  1  0
 16 37  1  1
 19 38  1  0
 19 39  1  0
 20 40  1  0
 20 41  1  0
 22 42  1  0
 23 43  1  6
 24 44  1  0
 24 45  1  0
M  END
$$$$

     RDKit          3D

 48 53  0  0  0  0  0  0  0  0999 V2000
   -4.0364   -2.4693   -1.0196 O   0  0  0  0  0  0  0  0  0  0  0  0
   -2.9122   -2.2456   -0.5629 C   0  0  0  0  0  0  0  0  0  0  0  0
   -1.7100   -2.9709   -1.1219 C   0  0  0  0  0  0  0  0  0  0  0  0
   -0.5462   -2.0096   -1.3411 C   0  0  0  0  0  0  0  0  0  0  0  0
   -0.1462   -1.3412   -0.0209 C   0  0  1  0  0  0  0  0  0  0  0  0
    0.3097   -2.4088    0.8366 O   0  0  0  0  0  0  0  0  0  0  0  0
    1.0075   -0.2826   -0.1534 C   0  0  1  0  0  0  0  0  0  0  0  0
    0.5954    0.9591   -1.0223 C   0  0  0  0  0  0  0  0  0  0  0  0
   -0.8482    1.3705   -0.8881 C   0  0  0  0  0  0  0  0  0  0  0  0
   -1.4228    2.4646   -1.5395 C   0  0  0  0  0  0  0  0  0  0  0  0
   -2.8124    2.7038   -1.4440 C   0  0  0  0  0  0  0  0  0  0  0  0
   -3.6365    1.8339   -0.7280 C   0  0  0  0  0  0  0  0  0  0  0  0
   -4.9786    2.0435   -0.6956 O   0  0  0  0  0  0  0  0  0  0  0  0
   -3.0623    0.7581   -0.0965 C   0  0  0  0  0  0  0  0  0  0  0  0
   -1.6987    0.5717   -0.1473 C   0  0  0  0  0  0  0  0  0  0  0  0
   -1.3180   -0.6216    0.6548 C   0  0  2  0  0  0  0  0  0  0  0  0
   -0.9075   -0.1605    2.0720 C   0  0  0  0  0  0  0  0  0  0  0  0
    0.4052    0.6419    2.0632 C   0  0  0  0  0  0  0  0  0  0  0  0
    1.4590    0.0059    1.2487 N   0  0  0  0  0  0  0  0  0  0  0  0
    2.6988    0.7916    1.3333 C   0  0  0  0  0  0  0  0  0  0  0  0
    3.8613    0.0332    0.7653 C   0  0  0  0  0  0  0  0  0  0  0  0
    5.1848    0.7333    0.5774 C   0  0  0  0  0  0  0  0  0  0  0  0
    4.3831    0.3178   -0.6226 C   0  0  0  0  0  0  0  0  0  0  0  0
   -2.6909   -1.3096    0.6383 C   0  0  1  0  0  0  0  0  0  0  0  0
   -3.7029   -0.2452    0.5896 O   0  0  0  0  0  0  0  0  0  0  0  0
   -1.9893   -3.4227   -2.0803 H   0  0  0  0  0  0  0  0  0  0  0  0
   -1.4474   -3.7831   -0.4363 H   0  0  0  0  0  0  0  0  0  0  0  0
   -0.8217   -1.2716   -2.1024 H   0  0  0  0  0  0  0  0  0  0  0  0
    0.3016   -2.5809   -1.7390 H   0  0  0  0  0  0  0  0  0  0  0  0
    1.0028   -2.0001    1.4013 H   0  0  0  0  0  0  0  0  0  0  0  0
    1.8395   -0.7865   -0.6597 H   0  0  0  0  0  0  0  0  0  0  0  0
    0.7583    0.6914   -2.0748 H   0  0  0  0  0  0  0  0  0  0  0  0
    1.2414    1.8183   -0.8189 H   0  0  0  0  0  0  0  0  0  0  0  0
   -0.8112    3.1328   -2.1416 H   0  0  0  0  0  0  0  0  0  0  0  0
   -3.2519    3.5544   -1.9590 H   0  0  0  0  0  0  0  0  0  0  0  0
   -5.3590    1.2758   -0.2261 H   0  0  0  0  0  0  0  0  0  0  0  0
   -1.6898    0.4526    2.5387 H   0  0  0  0  0  0  0  0  0  0  0  0
   -0.7850   -1.0384    2.7199 H   0  0  0  0  0  0  0  0  0  0  0  0
    0.2154    1.6678    1.7242 H   0  0  0  0  0  0  0  0  0  0  0  0
    0.7459    0.7214    3.1033 H   0  0  0  0  0  0  0  0  0  0  0  0
    2.5954    1.7788    0.8692 H   0  0  0  0  0  0  0  0  0  0  0  0
    2.9349    0.9700    2.3903 H   0  0  0  0  0  0  0  0  0  0  0  0
    3.9052   -0.9861    1.1354 H   0  0  0  0  0  0  0  0  0  0  0  0
    6.0882    0.1769    0.8021 H   0  0  0  0  0  0  0  0  0  0  0  0
    5.2523    1.7921    0.8007 H   0  0  0  0  0  0  0  0  0  0  0  0
    4.7426   -0.5213   -1.2078 H   0  0  0  0  0  0  0  0  0  0  0  0
    3.9140    1.0984   -1.2100 H   0  0  0  0  0  0  0  0  0  0  0  0
   -2.8572   -1.9041    1.5442 H   0  0  0  0  0  0  0  0  0  0  0  0
  1  2  2  0
  2  3  1  0
  3  4  1  0
  4  5  1  0
  5  6  1  1
  5  7  1  0
  7  8  1  0
  8  9  1  0
  9 10  2  0
 10 11  1  0
 11 12  2  0
 12 13  1  0
 12 14  1  0
 14 15  2  0
 15 16  1  0
 16 17  1  1
 17 18  1  0
 18 19  1  0
 19 20  1  0
 20 21  1  0
 21 22  1  0
 22 23  1  0
 16 24  1  0
 24 25  1  0
 24  2  1  0
 16  5  1  0
 23 21  1  0
 19  7  1  0
 15  9  1  0
 25 14  1  0
  3 26  1  0
  3 27  1  0
  4 28  1  0
  4 29  1  0
  6 30  1  0
  7 31  1  6
  8 32  1  0
  8 33  1  0
 10 34  1  0
 11 35  1  0
 13 36  1  0
 17 37  1  0
 17 38  1  0
 18 39  1  0
 18 40  1  0
 20 41  1  0
 20 42  1  0
 21 43  1  0
 22 44  1  0
 22 45  1  0
 23 46  1  0
 23 47  1  0
 24 48  1  1
M  END
$$$$

     RDKit          3D

 40 41  0  0  0  0  0  0  0  0999 V2000
   -1.7096    3.9260   -1.7230 C   0  0  0  0  0  0  0  0  0  0  0  0
   -1.0126    2.6503   -2.1535 C   0  0  0  0  0  0  0  0  0  0  0  0
   -0.9153    1.7901   -1.0129 O   0  0  0  0  0  0  0  0  0  0  0  0
   -0.3166    0.5859   -1.2604 C   0  0  0  0  0  0  0  0  0  0  0  0
    0.1245    0.2596   -2.3574 O   0  0  0  0  0  0  0  0  0  0  0  0
   -0.1926   -0.2550    0.0370 C   0  0  1  0  0  0  0  0  0  0  0  0
    1.0321    0.2896    0.8197 C   0  0  0  0  0  0  0  0  0  0  0  0
    0.9461    0.7479    2.1450 C   0  0  0  0  0  0  0  0  0  0  0  0
    2.0764    1.2193    2.8200 C   0  0  0  0  0  0  0  0  0  0  0  0
    3.3145    1.2430    2.1858 C   0  0  0  0  0  0  0  0  0  0  0  0
    3.4257    0.7951    0.8743 C   0  0  0  0  0  0  0  0  0  0  0  0
    2.2982    0.3233    0.1986 C   0  0  0  0  0  0  0  0  0  0  0  0
   -1.5347   -0.1739    0.8270 C   0  0  0  0  0  0  0  0  0  0  0  0
   -2.7412   -0.6662    0.0168 C   0  0  0  0  0  0  0  0  0  0  0  0
   -2.4491   -1.8729   -0.8171 C   0  0  0  0  0  0  0  0  0  0  0  0
   -1.2168   -2.3768   -0.9774 C   0  0  0  0  0  0  0  0  0  0  0  0
    0.0338   -1.7710   -0.3745 C   0  0  2  0  0  0  0  0  0  0  0  0
    0.4277   -2.6296    0.7733 N   0  0  0  0  0  0  0  0  0  0  0  0
    1.1209   -3.8427    0.3538 C   0  0  0  0  0  0  0  0  0  0  0  0
   -2.7062    3.7054   -1.3264 H   0  0  0  0  0  0  0  0  0  0  0  0
   -1.8087    4.6192   -2.5629 H   0  0  0  0  0  0  0  0  0  0  0  0
   -1.1500    4.4191   -0.9212 H   0  0  0  0  0  0  0  0  0  0  0  0
   -0.0093    2.8842   -2.5264 H   0  0  0  0  0  0  0  0  0  0  0  0
   -1.5952    2.1579   -2.9401 H   0  0  0  0  0  0  0  0  0  0  0  0
    0.0047    0.7465    2.6880 H   0  0  0  0  0  0  0  0  0  0  0  0
    1.9865    1.5690    3.8456 H   0  0  0  0  0  0  0  0  0  0  0  0
    4.1905    1.6113    2.7129 H   0  0  0  0  0  0  0  0  0  0  0  0
    4.3900    0.8136    0.3729 H   0  0  0  0  0  0  0  0  0  0  0  0
    2.4236   -0.0171   -0.8288 H   0  0  0  0  0  0  0  0  0  0  0  0
   -1.7443    0.8495    1.1640 H   0  0  0  0  0  0  0  0  0  0  0  0
   -1.4642   -0.7830    1.7388 H   0  0  0  0  0  0  0  0  0  0  0  0
   -3.0996    0.1320   -0.6437 H   0  0  0  0  0  0  0  0  0  0  0  0
   -3.5625   -0.8929    0.7065 H   0  0  0  0  0  0  0  0  0  0  0  0
   -3.2923   -2.3616   -1.2992 H   0  0  0  0  0  0  0  0  0  0  0  0
   -1.0879   -3.2676   -1.5866 H   0  0  0  0  0  0  0  0  0  0  0  0
    0.8283   -1.8068   -1.1318 H   0  0  0  0  0  0  0  0  0  0  0  0
    1.0578   -2.1037    1.3802 H   0  0  0  0  0  0  0  0  0  0  0  0
    0.4828   -4.4919   -0.2526 H   0  0  0  0  0  0  0  0  0  0  0  0
    1.4115   -4.4146    1.2408 H   0  0  0  0  0  0  0  0  0  0  0  0
    2.0332   -3.6102   -0.2052 H   0  0  0  0  0  0  0  0  0  0  0  0
  1  2  1  0
  2  3  1  0
  3  4  1  0
  4  5  2  0
  6  4  1  6
  6  7  1  0
  7  8  2  0
  8  9  1  0
  9 10  2  0
 10 11  1  0
 11 12  2  0
  6 13  1  0
 13 14  1  0
 14 15  1  0
 15 16  2  0
 16 17  1  0
 17 18  1  0
 18 19  1  0
 17  6  1  0
 12  7  1  0
  1 20  1  0
  1 21  1  0
  1 22  1  0
  2 23  1  0
  2 24  1  0
  8 25  1  0
  9 26  1  0
 10 27  1  0
 11 28  1  0
 12 29  1  0
 13 30  1  0
 13 31  1  0
 14 32  1  0
 14 33  1  0
 15 34  1  0
 16 35  1  0
 17 36  1  6
 18 37  1  0
 19 38  1  0
 19 39  1  0
 19 40  1  0
M  END
$$$$

     RDKit          3D

 44 48  0  0  0  0  0  0  0  0999 V2000
    4.8611   -0.0530    0.3436 C   0  0  0  0  0  0  0  0  0  0  0  0
    4.2444   -1.2684   -0.0643 O   0  0  0  0  0  0  0  0  0  0  0  0
    2.8858   -1.2581   -0.1780 C   0  0  0  0  0  0  0  0  0  0  0  0
    2.3338   -2.4183   -0.7520 C   0  0  0  0  0  0  0  0  0  0  0  0
    0.9477   -2.5521   -0.9857 C   0  0  0  0  0  0  0  0  0  0  0  0
    0.0761   -1.5338   -0.6114 C   0  0  0  0  0  0  0  0  0  0  0  0
    0.6418   -0.4306    0.0014 C   0  0  0  0  0  0  0  0  0  0  0  0
    2.0053   -0.2575    0.1807 C   0  0  0  0  0  0  0  0  0  0  0  0
    2.2772    0.9872    0.7050 O   0  0  0  0  0  0  0  0  0  0  0  0
    1.0543    1.7495    0.4551 C   0  0  1  0  0  0  0  0  0  0  0  0
    1.1879    2.4735   -0.8965 C   0  0  0  0  0  0  0  0  0  0  0  0
    2.2725    2.8854   -1.3164 O   0  0  0  0  0  0  0  0  0  0  0  0
   -0.0795    2.7604   -1.6682 C   0  0  0  0  0  0  0  0  0  0  0  0
   -0.9572    1.5163   -1.7570 C   0  0  0  0  0  0  0  0  0  0  0  0
   -1.3306    1.0214   -0.3551 C   0  0  1  0  0  0  0  0  0  0  0  0
   -2.1122    2.0790    0.2392 O   0  0  0  0  0  0  0  0  0  0  0  0
   -2.1830   -0.2955   -0.3394 C   0  0  1  0  0  0  0  0  0  0  0  0
   -1.4002   -1.5276   -0.9138 C   0  0  0  0  0  0  0  0  0  0  0  0
   -2.6935   -0.4300    1.0624 N   0  0  0  0  0  0  0  0  0  0  0  0
   -3.7223   -1.4617    1.1910 C   0  0  0  0  0  0  0  0  0  0  0  0
   -1.6228   -0.6337    2.0524 C   0  0  0  0  0  0  0  0  0  0  0  0
   -0.5433    0.4600    1.9784 C   0  0  0  0  0  0  0  0  0  0  0  0
   -0.1030    0.7500    0.5230 C   0  0  1  0  0  0  0  0  0  0  0  0
    4.5962    0.1959    1.3761 H   0  0  0  0  0  0  0  0  0  0  0  0
    5.9445   -0.2059    0.3124 H   0  0  0  0  0  0  0  0  0  0  0  0
    4.6265    0.7653   -0.3451 H   0  0  0  0  0  0  0  0  0  0  0  0
    3.0004   -3.2250   -1.0523 H   0  0  0  0  0  0  0  0  0  0  0  0
    0.5760   -3.4504   -1.4729 H   0  0  0  0  0  0  0  0  0  0  0  0
    0.9649    2.5250    1.2248 H   0  0  0  0  0  0  0  0  0  0  0  0
    0.1924    3.0825   -2.6796 H   0  0  0  0  0  0  0  0  0  0  0  0
   -0.5978    3.5936   -1.1826 H   0  0  0  0  0  0  0  0  0  0  0  0
   -0.4369    0.7447   -2.3347 H   0  0  0  0  0  0  0  0  0  0  0  0
   -1.8667    1.7757   -2.3129 H   0  0  0  0  0  0  0  0  0  0  0  0
   -2.7345    1.6215    0.8471 H   0  0  0  0  0  0  0  0  0  0  0  0
   -3.0668   -0.1298   -0.9707 H   0  0  0  0  0  0  0  0  0  0  0  0
   -1.8472   -2.4694   -0.5805 H   0  0  0  0  0  0  0  0  0  0  0  0
   -1.5058   -1.5036   -2.0066 H   0  0  0  0  0  0  0  0  0  0  0  0
   -4.1833   -1.4121    2.1840 H   0  0  0  0  0  0  0  0  0  0  0  0
   -4.5276   -1.2992    0.4664 H   0  0  0  0  0  0  0  0  0  0  0  0
   -3.3301   -2.4742    1.0537 H   0  0  0  0  0  0  0  0  0  0  0  0
   -1.1630   -1.6228    1.9366 H   0  0  0  0  0  0  0  0  0  0  0  0
   -2.0511   -0.6108    3.0624 H   0  0  0  0  0  0  0  0  0  0  0  0
   -0.9369    1.3805    2.4295 H   0  0  0  0  0  0  0  0  0  0  0  0
    0.3065    0.1563    2.6038 H   0  0  0  0  0  0  0  0  0  0  0  0
  1  2  1  0
  2  3  1  0
  3  4  2  0
  4  5  1  0
  5  6  2  0
  6  7  1  0
  7  8  2  0
  8  9  1  0
  9 10  1  0
 10 11  1  0
 11 12  2  0
 11 13  1  0
 13 14  1  0
 14 15  1  0
 15 16  1  1
 15 17  1  0
 17 18  1  0
 17 19  1  0
 19 20  1  0
 19 21  1  0
 21 22  1  0
 23 22  1  1
  8  3  1  0
 23 10  1  0
 18  6  1  0
 23  7  1  0
 23 15  1  0
  1 24  1  0
  1 25  1  0
  1 26  1  0
  4 27  1  0
  5 28  1  0
 10 29  1  1
 13 30  1  0
 13 31  1  0
 14 32  1  0
 14 33  1  0
 16 34  1  0
 17 35  1  6
 18 36  1  0
 18 37  1  0
 20 38  1  0
 20 39  1  0
 20 40  1  0
 21 41  1  0
 21 42  1  0
 22 43  1  0
 22 44  1  0
M  END
$$$$

     RDKit          3D

 48 50  0  0  0  0  0  0  0  0999 V2000
    3.9677    1.9343    0.4142 C   0  0  0  0  0  0  0  0  0  0  0  0
    4.1228    0.4634    0.1477 C   0  0  0  0  0  0  0  0  0  0  0  0
    5.3425    0.1088   -0.6632 C   0  0  0  0  0  0  0  0  0  0  0  0
    3.2777   -0.5008    0.5647 C   0  0  0  0  0  0  0  0  0  0  0  0
    2.0172   -0.3617    1.3726 C   0  0  0  0  0  0  0  0  0  0  0  0
    0.8591   -0.9607    0.6947 N   0  0  0  0  0  0  0  0  0  0  0  0
   -0.2710   -1.0790    1.6248 C   0  0  0  0  0  0  0  0  0  0  0  0
   -1.4821   -1.7649    0.9829 C   0  0  0  0  0  0  0  0  0  0  0  0
   -1.8632   -1.1571   -0.3890 C   0  0  1  0  0  0  0  0  0  0  0  0
   -2.9567   -2.0346   -1.0394 C   0  0  0  0  0  0  0  0  0  0  0  0
   -2.3575    0.2875   -0.1466 C   0  0  0  0  0  0  0  0  0  0  0  0
   -3.6971    0.5651    0.1830 C   0  0  0  0  0  0  0  0  0  0  0  0
   -4.1209    1.8689    0.4272 C   0  0  0  0  0  0  0  0  0  0  0  0
   -5.4361    2.0606    0.7350 O   0  0  0  0  0  0  0  0  0  0  0  0
   -3.2332    2.9315    0.3633 C   0  0  0  0  0  0  0  0  0  0  0  0
   -1.8979    2.6790    0.0602 C   0  0  0  0  0  0  0  0  0  0  0  0
   -1.4475    1.3681   -0.1823 C   0  0  0  0  0  0  0  0  0  0  0  0
    0.0172    1.1728   -0.5031 C   0  0  0  0  0  0  0  0  0  0  0  0
    0.4892   -0.2971   -0.5816 C   0  0  2  0  0  0  0  0  0  0  0  0
   -0.6011   -1.1180   -1.3075 C   0  0  1  0  0  0  0  0  0  0  0  0
   -0.0511   -2.4890   -1.7371 C   0  0  0  0  0  0  0  0  0  0  0  0
    4.8462    2.3140    0.9466 H   0  0  0  0  0  0  0  0  0  0  0  0
    3.8763    2.4790   -0.5315 H   0  0  0  0  0  0  0  0  0  0  0  0
    3.0923    2.1806    1.0177 H   0  0  0  0  0  0  0  0  0  0  0  0
    5.3071    0.6067   -1.6377 H   0  0  0  0  0  0  0  0  0  0  0  0
    5.4247   -0.9682   -0.8437 H   0  0  0  0  0  0  0  0  0  0  0  0
    6.2505    0.4283   -0.1413 H   0  0  0  0  0  0  0  0  0  0  0  0
    3.5050   -1.5349    0.3048 H   0  0  0  0  0  0  0  0  0  0  0  0
    2.2035   -0.9118    2.3050 H   0  0  0  0  0  0  0  0  0  0  0  0
    1.8143    0.6681    1.6753 H   0  0  0  0  0  0  0  0  0  0  0  0
    0.0286   -1.6877    2.4877 H   0  0  0  0  0  0  0  0  0  0  0  0
   -0.5566   -0.1002    2.0289 H   0  0  0  0  0  0  0  0  0  0  0  0
   -1.2589   -2.8336    0.8679 H   0  0  0  0  0  0  0  0  0  0  0  0
   -2.3289   -1.7098    1.6798 H   0  0  0  0  0  0  0  0  0  0  0  0
   -3.2873   -1.6110   -1.9946 H   0  0  0  0  0  0  0  0  0  0  0  0
   -2.6051   -3.0545   -1.2254 H   0  0  0  0  0  0  0  0  0  0  0  0
   -3.8366   -2.1457   -0.3973 H   0  0  0  0  0  0  0  0  0  0  0  0
   -4.4362   -0.2254    0.2668 H   0  0  0  0  0  0  0  0  0  0  0  0
   -5.5854    3.0104    0.8701 H   0  0  0  0  0  0  0  0  0  0  0  0
   -3.5545    3.9506    0.5498 H   0  0  0  0  0  0  0  0  0  0  0  0
   -1.1983    3.5113    0.0161 H   0  0  0  0  0  0  0  0  0  0  0  0
    0.6269    1.7420    0.2059 H   0  0  0  0  0  0  0  0  0  0  0  0
    0.1883    1.6299   -1.4879 H   0  0  0  0  0  0  0  0  0  0  0  0
    1.3771   -0.3036   -1.2271 H   0  0  0  0  0  0  0  0  0  0  0  0
   -0.8612   -0.5952   -2.2407 H   0  0  0  0  0  0  0  0  0  0  0  0
    0.1538   -3.1482   -0.8891 H   0  0  0  0  0  0  0  0  0  0  0  0
    0.8845   -2.3669   -2.2944 H   0  0  0  0  0  0  0  0  0  0  0  0
   -0.7481   -3.0016   -2.4069 H   0  0  0  0  0  0  0  0  0  0  0  0
  1  2  1  0
  2  3  1  0
  2  4  2  3
  4  5  1  0
  5  6  1  0
  6  7  1  0
  7  8  1  0
  8  9  1  0
  9 10  1  6
  9 11  1  0
 11 12  2  0
 12 13  1  0
 13 14  1  0
 13 15  2  0
 15 16  1  0
 16 17  2  0
 17 18  1  0
 18 19  1  0
 19 20  1  0
 20 21  1  0
 19  6  1  0
 20  9  1  0
 17 11  1  0
  1 22  1  0
  1 23  1  0
  1 24  1  0
  3 25  1  0
  3 26  1  0
  3 27  1  0
  4 28  1  0
  5 29  1  0
  5 30  1  0
  7 31  1  0
  7 32  1  0
  8 33  1  0
  8 34  1  0
 10 35  1  0
 10 36  1  0
 10 37  1  0
 12 38  1  0
 14 39  1  0
 15 40  1  0
 16 41  1  0
 18 42  1  0
 18 43  1  0
 19 44  1  6
 20 45  1  6
 21 46  1  0
 21 47  1  0
 21 48  1  0
M  END
$$$$

     RDKit          3D

 66 69  0  0  0  0  0  0  0  0999 V2000
   -3.6780   -0.2155    3.6102 N   0  0  0  0  0  0  0  0  0  0  0  0
   -3.6660    0.0378    2.4756 C   0  0  0  0  0  0  0  0  0  0  0  0
   -3.6341    0.3395    1.0086 C   0  0  0  0  0  0  0  0  0  0  0  0
   -2.1346    0.6182    0.6330 C   0  0  0  0  0  0  0  0  0  0  0  0
   -1.1933   -0.5969    0.7782 C   0  0  0  0  0  0  0  0  0  0  0  0
    0.2244   -0.2298    0.5692 N   0  0  0  0  0  0  0  0  0  0  0  0
    1.0868   -1.3156    1.0679 C   0  0  0  0  0  0  0  0  0  0  0  0
    2.5795   -0.9912    0.9266 C   0  0  0  0  0  0  0  0  0  0  0  0
    2.9864   -0.5603   -0.5011 C   0  0  0  0  0  0  0  0  0  0  0  0
    2.8799   -1.7767   -1.4935 C   0  0  0  0  0  0  0  0  0  0  0  0
    3.4091   -1.5470   -2.7364 N   0  0  0  0  0  0  0  0  0  0  0  0
    2.3641   -2.8595   -1.2373 O   0  0  0  0  0  0  0  0  0  0  0  0
    4.4190   -0.0645   -0.6088 N   0  0  0  0  0  0  0  0  0  0  0  0
    4.6653    1.2579   -0.0089 C   0  0  0  0  0  0  0  0  0  0  0  0
    6.0921    1.7464   -0.2860 C   0  0  0  0  0  0  0  0  0  0  0  0
    7.1374    0.7421    0.1759 C   0  0  0  0  0  0  0  0  0  0  0  0
    6.8282   -0.6341   -0.3945 C   0  0  0  0  0  0  0  0  0  0  0  0
    5.3905   -1.0467   -0.0760 C   0  0  0  0  0  0  0  0  0  0  0  0
    1.9693    0.4956   -1.0070 C   0  0  0  0  0  0  0  0  0  0  0  0
    0.5189    0.0311   -0.8475 C   0  0  0  0  0  0  0  0  0  0  0  0
   -4.5505    1.5808    0.7886 C   0  0  0  0  0  0  0  0  0  0  0  0
   -4.0583    2.8486    0.4279 C   0  0  0  0  0  0  0  0  0  0  0  0
   -4.9231    3.9327    0.2447 C   0  0  0  0  0  0  0  0  0  0  0  0
   -6.2944    3.7762    0.4205 C   0  0  0  0  0  0  0  0  0  0  0  0
   -6.8063    2.5365    0.7871 C   0  0  0  0  0  0  0  0  0  0  0  0
   -5.9457    1.4523    0.9719 C   0  0  0  0  0  0  0  0  0  0  0  0
   -4.1352   -0.8404    0.1268 C   0  0  0  0  0  0  0  0  0  0  0  0
   -4.4599   -2.1029    0.6590 C   0  0  0  0  0  0  0  0  0  0  0  0
   -4.8865   -3.1443   -0.1704 C   0  0  0  0  0  0  0  0  0  0  0  0
   -4.9970   -2.9485   -1.5437 C   0  0  0  0  0  0  0  0  0  0  0  0
   -4.6834   -1.7099   -2.0932 C   0  0  0  0  0  0  0  0  0  0  0  0
   -4.2568   -0.6671   -1.2687 C   0  0  0  0  0  0  0  0  0  0  0  0
   -2.0841    0.9856   -0.3992 H   0  0  0  0  0  0  0  0  0  0  0  0
   -1.7423    1.4231    1.2717 H   0  0  0  0  0  0  0  0  0  0  0  0
   -1.4771   -1.4025    0.0908 H   0  0  0  0  0  0  0  0  0  0  0  0
   -1.3038   -0.9911    1.7953 H   0  0  0  0  0  0  0  0  0  0  0  0
    0.8453   -2.2621    0.5708 H   0  0  0  0  0  0  0  0  0  0  0  0
    0.8909   -1.4712    2.1367 H   0  0  0  0  0  0  0  0  0  0  0  0
    3.1430   -1.8767    1.2447 H   0  0  0  0  0  0  0  0  0  0  0  0
    2.8173   -0.1911    1.6385 H   0  0  0  0  0  0  0  0  0  0  0  0
    3.3918   -2.2847   -3.4248 H   0  0  0  0  0  0  0  0  0  0  0  0
    3.9778   -0.7207   -2.8805 H   0  0  0  0  0  0  0  0  0  0  0  0
    4.4883    1.2422    1.0728 H   0  0  0  0  0  0  0  0  0  0  0  0
    4.0071    2.0154   -0.4426 H   0  0  0  0  0  0  0  0  0  0  0  0
    6.2120    1.9263   -1.3623 H   0  0  0  0  0  0  0  0  0  0  0  0
    6.2562    2.7068    0.2162 H   0  0  0  0  0  0  0  0  0  0  0  0
    8.1360    1.0654   -0.1376 H   0  0  0  0  0  0  0  0  0  0  0  0
    7.1420    0.6938    1.2715 H   0  0  0  0  0  0  0  0  0  0  0  0
    7.5254   -1.3708    0.0209 H   0  0  0  0  0  0  0  0  0  0  0  0
    6.9790   -0.6274   -1.4816 H   0  0  0  0  0  0  0  0  0  0  0  0
    5.2858   -1.1531    1.0110 H   0  0  0  0  0  0  0  0  0  0  0  0
    5.2321   -2.0375   -0.5155 H   0  0  0  0  0  0  0  0  0  0  0  0
    2.0594    1.4287   -0.4385 H   0  0  0  0  0  0  0  0  0  0  0  0
    2.1498    0.7495   -2.0589 H   0  0  0  0  0  0  0  0  0  0  0  0
    0.3156   -0.8490   -1.4699 H   0  0  0  0  0  0  0  0  0  0  0  0
   -0.1144    0.8401   -1.2262 H   0  0  0  0  0  0  0  0  0  0  0  0
   -2.9970    3.0323    0.2843 H   0  0  0  0  0  0  0  0  0  0  0  0
   -4.5217    4.9045   -0.0330 H   0  0  0  0  0  0  0  0  0  0  0  0
   -6.9630    4.6211    0.2786 H   0  0  0  0  0  0  0  0  0  0  0  0
   -7.8762    2.4102    0.9321 H   0  0  0  0  0  0  0  0  0  0  0  0
   -6.3807    0.4959    1.2625 H   0  0  0  0  0  0  0  0  0  0  0  0
   -4.3865   -2.3118    1.7248 H   0  0  0  0  0  0  0  0  0  0  0  0
   -5.1306   -4.1130    0.2601 H   0  0  0  0  0  0  0  0  0  0  0  0
   -5.3283   -3.7612   -2.1849 H   0  0  0  0  0  0  0  0  0  0  0  0
   -4.7715   -1.5535   -3.1652 H   0  0  0  0  0  0  0  0  0  0  0  0
   -4.0253    0.2922   -1.7294 H   0  0  0  0  0  0  0  0  0  0  0  0
  1  2  3  0
  2  3  1  0
  3  4  1  0
  4  5  1  0
  5  6  1  0
  6  7  1  0
  7  8  1  0
  8  9  1  0
  9 10  1  0
 10 11  1  0
 10 12  2  0
  9 13  1  0
 13 14  1  0
 14 15  1  0
 15 16  1  0
 16 17  1  0
 17 18  1  0
  9 19  1  0
 19 20  1  0
  3 21  1  0
 21 22  2  0
 22 23  1  0
 23 24  2  0
 24 25  1  0
 25 26  2  0
  3 27  1  0
 27 28  2  0
 28 29  1  0
 29 30  2  0
 30 31  1  0
 31 32  2  0
 20  6  1  0
 26 21  1  0
 32 27  1  0
 18 13  1  0
  4 33  1  0
  4 34  1  0
  5 35  1  0
  5 36  1  0
  7 37  1  0
  7 38  1  0
  8 39  1  0
  8 40  1  0
 11 41  1  0
 11 42  1  0
 14 43  1  0
 14 44  1  0
 15 45  1  0
 15 46  1  0
 16 47  1  0
 16 48  1  0
 17 49  1  0
 17 50  1  0
 18 51  1  0
 18 52  1  0
 19 53  1  0
 19 54  1  0
 20 55  1  0
 20 56  1  0
 22 57  1  0
 23 58  1  0
 24 59  1  0
 25 60  1  0
 26 61  1  0
 28 62  1  0
 29 63  1  0
 30 64  1  0
 31 65  1  0
 32 66  1  0
M  END
$$$$

     RDKit          3D

 54 55  0  0  0  0  0  0  0  0999 V2000
   -2.9750   -1.5471   -3.6015 C   0  0  0  0  0  0  0  0  0  0  0  0
   -2.7419   -1.4701   -2.1030 C   0  0  0  0  0  0  0  0  0  0  0  0
   -1.3157   -1.1029   -1.7704 C   0  0  0  0  0  0  0  0  0  0  0  0
   -0.4026   -1.0352   -2.5793 O   0  0  0  0  0  0  0  0  0  0  0  0
   -1.2200   -0.8771   -0.4343 O   0  0  0  0  0  0  0  0  0  0  0  0
    0.0305   -0.4117    0.1948 C   0  0  0  0  0  0  0  0  0  0  0  0
    0.4302    0.9541   -0.4761 C   0  0  0  0  0  0  0  0  0  0  0  0
   -0.6978    1.9379   -0.7645 C   0  0  0  0  0  0  0  0  0  0  0  0
   -1.3965    2.5844    0.2625 C   0  0  0  0  0  0  0  0  0  0  0  0
   -2.4266    3.4818   -0.0293 C   0  0  0  0  0  0  0  0  0  0  0  0
   -2.7671    3.7513   -1.3523 C   0  0  0  0  0  0  0  0  0  0  0  0
   -2.0711    3.1298   -2.3861 C   0  0  0  0  0  0  0  0  0  0  0  0
   -1.0411    2.2340   -2.0945 C   0  0  0  0  0  0  0  0  0  0  0  0
   -0.3009   -0.2323    1.7016 C   0  0  0  0  0  0  0  0  0  0  0  0
   -1.4397   -0.8315    2.2766 C   0  0  0  0  0  0  0  0  0  0  0  0
   -1.7365   -0.6809    3.6343 C   0  0  0  0  0  0  0  0  0  0  0  0
   -0.9011    0.0709    4.4532 C   0  0  0  0  0  0  0  0  0  0  0  0
    0.2324    0.6700    3.9147 C   0  0  0  0  0  0  0  0  0  0  0  0
    0.5292    0.5178    2.5572 C   0  0  0  0  0  0  0  0  0  0  0  0
    1.1242   -1.5470    0.0132 C   0  0  0  0  0  0  0  0  0  0  0  0
    0.6220   -2.9212    0.5098 C   0  0  0  0  0  0  0  0  0  0  0  0
    2.5211   -1.3003    0.6411 C   0  0  0  0  0  0  0  0  0  0  0  0
    3.2502   -0.1240    0.1384 N   0  0  0  0  0  0  0  0  0  0  0  0
    3.7364   -0.3337   -1.2313 C   0  0  0  0  0  0  0  0  0  0  0  0
    4.3895    0.1753    1.0127 C   0  0  0  0  0  0  0  0  0  0  0  0
   -2.7484   -0.5903   -4.0844 H   0  0  0  0  0  0  0  0  0  0  0  0
   -4.0189   -1.7990   -3.8121 H   0  0  0  0  0  0  0  0  0  0  0  0
   -2.3395   -2.3125   -4.0600 H   0  0  0  0  0  0  0  0  0  0  0  0
   -3.4059   -0.7101   -1.6772 H   0  0  0  0  0  0  0  0  0  0  0  0
   -2.9654   -2.4387   -1.6442 H   0  0  0  0  0  0  0  0  0  0  0  0
    0.9202    0.7387   -1.4330 H   0  0  0  0  0  0  0  0  0  0  0  0
    1.1853    1.4962    0.1015 H   0  0  0  0  0  0  0  0  0  0  0  0
   -1.1493    2.4051    1.3051 H   0  0  0  0  0  0  0  0  0  0  0  0
   -2.9598    3.9723    0.7806 H   0  0  0  0  0  0  0  0  0  0  0  0
   -3.5677    4.4501   -1.5767 H   0  0  0  0  0  0  0  0  0  0  0  0
   -2.3267    3.3423   -3.4208 H   0  0  0  0  0  0  0  0  0  0  0  0
   -0.5069    1.7611   -2.9172 H   0  0  0  0  0  0  0  0  0  0  0  0
   -2.1171   -1.4302    1.6719 H   0  0  0  0  0  0  0  0  0  0  0  0
   -2.6225   -1.1543    4.0507 H   0  0  0  0  0  0  0  0  0  0  0  0
   -1.1322    0.1885    5.5082 H   0  0  0  0  0  0  0  0  0  0  0  0
    0.8906    1.2581    4.5494 H   0  0  0  0  0  0  0  0  0  0  0  0
    1.4292    0.9994    2.1807 H   0  0  0  0  0  0  0  0  0  0  0  0
    1.2831   -1.6893   -1.0604 H   0  0  0  0  0  0  0  0  0  0  0  0
    1.3267   -3.7098    0.2219 H   0  0  0  0  0  0  0  0  0  0  0  0
   -0.3463   -3.1855    0.0744 H   0  0  0  0  0  0  0  0  0  0  0  0
    0.5302   -2.9496    1.6002 H   0  0  0  0  0  0  0  0  0  0  0  0
    3.1427   -2.1956    0.4921 H   0  0  0  0  0  0  0  0  0  0  0  0
    2.3994   -1.2226    1.7282 H   0  0  0  0  0  0  0  0  0  0  0  0
    4.4156   -1.1915   -1.3015 H   0  0  0  0  0  0  0  0  0  0  0  0
    2.9115   -0.4915   -1.9322 H   0  0  0  0  0  0  0  0  0  0  0  0
    4.2698    0.5557   -1.5867 H   0  0  0  0  0  0  0  0  0  0  0  0
    4.9178    1.0703    0.6643 H   0  0  0  0  0  0  0  0  0  0  0  0
    5.1051   -0.6539    1.0591 H   0  0  0  0  0  0  0  0  0  0  0  0
    4.0473    0.3943    2.0306 H   0  0  0  0  0  0  0  0  0  0  0  0
  1  2  1  0
  2  3  1  0
  3  4  2  0
  3  5  1  0
  5  6  1  0
  6  7  1  0
  7  8  1  0
  8  9  2  0
  9 10  1  0
 10 11  2  0
 11 12  1  0
 12 13  2  0
  6 14  1  0
 14 15  2  0
 15 16  1  0
 16 17  2  0
 17 18  1  0
 18 19  2  0
  6 20  1  0
 20 21  1  0
 20 22  1  0
 22 23  1  0
 23 24  1  0
 23 25  1  0
 13  8  1  0
 19 14  1  0
  1 26  1  0
  1 27  1  0
  1 28  1  0
  2 29  1  0
  2 30  1  0
  7 31  1  0
  7 32  1  0
  9 33  1  0
 10 34  1  0
 11 35  1  0
 12 36  1  0
 13 37  1  0
 15 38  1  0
 16 39  1  0
 17 40  1  0
 18 41  1  0
 19 42  1  0
 20 43  1  0
 21 44  1  0
 21 45  1  0
 21 46  1  0
 22 47  1  0
 22 48  1  0
 24 49  1  0
 24 50  1  0
 24 51  1  0
 25 52  1  0
 25 53  1  0
 25 54  1  0
M  END
$$$$

     RDKit          3D

 55 56  0  0  0  0  0  0  0  0999 V2000
   -5.0273   -0.2255    2.5850 C   0  0  0  0  0  0  0  0  0  0  0  0
   -4.2652    0.2812    1.3707 C   0  0  0  0  0  0  0  0  0  0  0  0
   -2.8799   -0.3493    1.2487 C   0  0  0  0  0  0  0  0  0  0  0  0
   -2.4676   -1.1341    2.1054 O   0  0  0  0  0  0  0  0  0  0  0  0
   -2.1205   -0.0189    0.1172 N   0  0  0  0  0  0  0  0  0  0  0  0
   -2.6033    0.9048   -0.8393 C   0  0  0  0  0  0  0  0  0  0  0  0
   -3.2267    0.4412   -2.0009 C   0  0  0  0  0  0  0  0  0  0  0  0
   -3.7054    1.3534   -2.9412 C   0  0  0  0  0  0  0  0  0  0  0  0
   -3.5617    2.7238   -2.7205 C   0  0  0  0  0  0  0  0  0  0  0  0
   -2.9401    3.1859   -1.5598 C   0  0  0  0  0  0  0  0  0  0  0  0
   -2.4604    2.2775   -0.6163 C   0  0  0  0  0  0  0  0  0  0  0  0
   -0.7270   -0.6006   -0.0483 C   0  0  0  0  0  0  0  0  0  0  0  0
   -0.8435   -2.1530   -0.1328 C   0  0  0  0  0  0  0  0  0  0  0  0
    0.0814   -2.9334    0.0693 O   0  0  0  0  0  0  0  0  0  0  0  0
   -2.0673   -2.5518   -0.5983 O   0  0  0  0  0  0  0  0  0  0  0  0
   -2.2265   -3.9674   -0.6895 C   0  0  0  0  0  0  0  0  0  0  0  0
   -0.0336   -0.1575   -1.3681 C   0  0  0  0  0  0  0  0  0  0  0  0
    1.4534   -0.5020   -1.4274 C   0  0  0  0  0  0  0  0  0  0  0  0
    2.1656    0.1010   -0.2931 N   0  0  0  0  0  0  0  0  0  0  0  0
    3.6196   -0.1341   -0.4443 C   0  0  0  0  0  0  0  0  0  0  0  0
    4.4651    0.6914    0.5275 C   0  0  0  0  0  0  0  0  0  0  0  0
    5.9340    0.5395    0.2209 C   0  0  0  0  0  0  0  0  0  0  0  0
    6.4138   -0.2220   -0.6069 O   0  0  0  0  0  0  0  0  0  0  0  0
    6.6543    1.3760    1.0225 O   0  0  0  0  0  0  0  0  0  0  0  0
    8.0659    1.3052    0.8176 C   0  0  0  0  0  0  0  0  0  0  0  0
    1.6538   -0.4535    0.9660 C   0  0  0  0  0  0  0  0  0  0  0  0
    0.1598   -0.1733    1.1453 C   0  0  0  0  0  0  0  0  0  0  0  0
   -5.1657   -1.3107    2.5375 H   0  0  0  0  0  0  0  0  0  0  0  0
   -6.0149    0.2432    2.6373 H   0  0  0  0  0  0  0  0  0  0  0  0
   -4.4904    0.0051    3.5112 H   0  0  0  0  0  0  0  0  0  0  0  0
   -4.1568    1.3669    1.4556 H   0  0  0  0  0  0  0  0  0  0  0  0
   -4.8464    0.0509    0.4720 H   0  0  0  0  0  0  0  0  0  0  0  0
   -3.3462   -0.6249   -2.1751 H   0  0  0  0  0  0  0  0  0  0  0  0
   -4.1915    0.9968   -3.8458 H   0  0  0  0  0  0  0  0  0  0  0  0
   -3.9345    3.4335   -3.4552 H   0  0  0  0  0  0  0  0  0  0  0  0
   -2.8273    4.2541   -1.3920 H   0  0  0  0  0  0  0  0  0  0  0  0
   -1.9710    2.6426    0.2828 H   0  0  0  0  0  0  0  0  0  0  0  0
   -3.2537   -4.1724   -1.0031 H   0  0  0  0  0  0  0  0  0  0  0  0
   -2.0625   -4.4385    0.2847 H   0  0  0  0  0  0  0  0  0  0  0  0
   -1.5460   -4.3793   -1.4411 H   0  0  0  0  0  0  0  0  0  0  0  0
   -0.5282   -0.6128   -2.2356 H   0  0  0  0  0  0  0  0  0  0  0  0
   -0.1103    0.9299   -1.4939 H   0  0  0  0  0  0  0  0  0  0  0  0
    1.6081   -1.5866   -1.4710 H   0  0  0  0  0  0  0  0  0  0  0  0
    1.8449   -0.0924   -2.3674 H   0  0  0  0  0  0  0  0  0  0  0  0
    3.9168    0.1510   -1.4627 H   0  0  0  0  0  0  0  0  0  0  0  0
    3.8540   -1.2023   -0.3406 H   0  0  0  0  0  0  0  0  0  0  0  0
    4.2035    1.7520    0.4378 H   0  0  0  0  0  0  0  0  0  0  0  0
    4.3092    0.3654    1.5606 H   0  0  0  0  0  0  0  0  0  0  0  0
    8.3192    1.5874   -0.2091 H   0  0  0  0  0  0  0  0  0  0  0  0
    8.5431    2.0149    1.4990 H   0  0  0  0  0  0  0  0  0  0  0  0
    8.4364    0.3014    1.0476 H   0  0  0  0  0  0  0  0  0  0  0  0
    2.1622    0.0135    1.8169 H   0  0  0  0  0  0  0  0  0  0  0  0
    1.8586   -1.5279    1.0370 H   0  0  0  0  0  0  0  0  0  0  0  0
   -0.1509   -0.6698    2.0706 H   0  0  0  0  0  0  0  0  0  0  0  0
    0.0293    0.9045    1.3160 H   0  0  0  0  0  0  0  0  0  0  0  0
  1  2  1  0
  2  3  1  0
  3  4  2  0
  3  5  1  0
  5  6  1  0
  6  7  2  0
  7  8  1  0
  8  9  2  0
  9 10  1  0
 10 11  2  0
  5 12  1  0
 12 13  1  0
 13 14  2  0
 13 15  1  0
 15 16  1  0
 12 17  1  0
 17 18  1  0
 18 19  1  0
 19 20  1  0
 20 21  1  0
 21 22  1  0
 22 23  2  0
 22 24  1  0
 24 25  1  0
 19 26  1  0
 26 27  1  0
 11  6  1  0
 27 12  1  0
  1 28  1  0
  1 29  1  0
  1 30  1  0
  2 31  1  0
  2 32  1  0
  7 33  1  0
  8 34  1  0
  9 35  1  0
 10 36  1  0
 11 37  1  0
 16 38  1  0
 16 39  1  0
 16 40  1  0
 17 41  1  0
 17 42  1  0
 18 43  1  0
 18 44  1  0
 20 45  1  0
 20 46  1  0
 21 47  1  0
 21 48  1  0
 25 49  1  0
 25 50  1  0
 25 51  1  0
 26 52  1  0
 26 53  1  0
 27 54  1  0
 27 55  1  0
M  END
$$$$

     RDKit          3D

 57 59  0  0  0  0  0  0  0  0999 V2000
   -4.9817    2.2356    2.1987 C   0  0  0  0  0  0  0  0  0  0  0  0
   -4.3701    1.0854    1.4140 C   0  0  0  0  0  0  0  0  0  0  0  0
   -2.8853    1.3030    1.1217 C   0  0  0  0  0  0  0  0  0  0  0  0
   -2.2929    2.2654    1.6161 O   0  0  0  0  0  0  0  0  0  0  0  0
   -2.2542    0.3762    0.2768 N   0  0  0  0  0  0  0  0  0  0  0  0
   -2.9701   -0.7419   -0.2218 C   0  0  0  0  0  0  0  0  0  0  0  0
   -3.4856   -0.7236   -1.5205 C   0  0  0  0  0  0  0  0  0  0  0  0
   -4.2014   -1.8209   -1.9999 C   0  0  0  0  0  0  0  0  0  0  0  0
   -4.4028   -2.9340   -1.1830 C   0  0  0  0  0  0  0  0  0  0  0  0
   -3.8891   -2.9529    0.1142 C   0  0  0  0  0  0  0  0  0  0  0  0
   -3.1733   -1.8570    0.5972 C   0  0  0  0  0  0  0  0  0  0  0  0
   -0.7974    0.5555   -0.1392 C   0  0  0  0  0  0  0  0  0  0  0  0
   -0.6396    1.9177   -0.8954 C   0  0  0  0  0  0  0  0  0  0  0  0
   -1.3459    1.8877   -2.1447 O   0  0  0  0  0  0  0  0  0  0  0  0
   -1.2880    3.1433   -2.8085 C   0  0  0  0  0  0  0  0  0  0  0  0
   -0.2714   -0.6000   -1.0464 C   0  0  0  0  0  0  0  0  0  0  0  0
    1.2355   -0.5398   -1.2935 C   0  0  0  0  0  0  0  0  0  0  0  0
    1.9846   -0.5804   -0.0302 N   0  0  0  0  0  0  0  0  0  0  0  0
    3.4369   -0.5805   -0.3113 C   0  0  0  0  0  0  0  0  0  0  0  0
    4.3047   -0.9460    0.9068 C   0  0  0  0  0  0  0  0  0  0  0  0
    5.7570   -1.0494    0.5291 C   0  0  0  0  0  0  0  0  0  0  0  0
    6.4506   -2.1641    0.1007 C   0  0  0  0  0  0  0  0  0  0  0  0
    7.8179   -1.8774   -0.1774 C   0  0  0  0  0  0  0  0  0  0  0  0
    8.1236   -0.5547    0.0526 C   0  0  0  0  0  0  0  0  0  0  0  0
    6.7679    0.3326    0.5983 S   0  0  0  0  0  0  0  0  0  0  0  0
    1.5975    0.5314    0.8452 C   0  0  0  0  0  0  0  0  0  0  0  0
    0.0938    0.5410    1.1341 C   0  0  0  0  0  0  0  0  0  0  0  0
   -4.8931    3.1777    1.6472 H   0  0  0  0  0  0  0  0  0  0  0  0
   -6.0436    2.0465    2.3846 H   0  0  0  0  0  0  0  0  0  0  0  0
   -4.4834    2.3631    3.1657 H   0  0  0  0  0  0  0  0  0  0  0  0
   -4.9158    0.9810    0.4710 H   0  0  0  0  0  0  0  0  0  0  0  0
   -4.4861    0.1670    1.9973 H   0  0  0  0  0  0  0  0  0  0  0  0
   -3.3339    0.1431   -2.1589 H   0  0  0  0  0  0  0  0  0  0  0  0
   -4.6010   -1.8072   -3.0105 H   0  0  0  0  0  0  0  0  0  0  0  0
   -4.9593   -3.7890   -1.5589 H   0  0  0  0  0  0  0  0  0  0  0  0
   -4.0439   -3.8229    0.7474 H   0  0  0  0  0  0  0  0  0  0  0  0
   -2.7675   -1.8795    1.6049 H   0  0  0  0  0  0  0  0  0  0  0  0
    0.4115    2.1310   -1.1129 H   0  0  0  0  0  0  0  0  0  0  0  0
   -1.0115    2.7556   -0.2986 H   0  0  0  0  0  0  0  0  0  0  0  0
   -1.8311    3.0570   -3.7534 H   0  0  0  0  0  0  0  0  0  0  0  0
   -1.7638    3.9200   -2.2022 H   0  0  0  0  0  0  0  0  0  0  0  0
   -0.2501    3.4147   -3.0255 H   0  0  0  0  0  0  0  0  0  0  0  0
   -0.4881   -1.5711   -0.5809 H   0  0  0  0  0  0  0  0  0  0  0  0
   -0.7759   -0.6017   -2.0192 H   0  0  0  0  0  0  0  0  0  0  0  0
    1.4978    0.3457   -1.8848 H   0  0  0  0  0  0  0  0  0  0  0  0
    1.5027   -1.4131   -1.9021 H   0  0  0  0  0  0  0  0  0  0  0  0
    3.7475    0.3892   -0.7239 H   0  0  0  0  0  0  0  0  0  0  0  0
    3.6426   -1.3262   -1.0921 H   0  0  0  0  0  0  0  0  0  0  0  0
    4.1888   -0.2084    1.7087 H   0  0  0  0  0  0  0  0  0  0  0  0
    3.9739   -1.9089    1.3170 H   0  0  0  0  0  0  0  0  0  0  0  0
    5.9973   -3.1421   -0.0099 H   0  0  0  0  0  0  0  0  0  0  0  0
    8.5407   -2.6042   -0.5276 H   0  0  0  0  0  0  0  0  0  0  0  0
    9.0787   -0.0643   -0.0732 H   0  0  0  0  0  0  0  0  0  0  0  0
    2.1035    0.4404    1.8128 H   0  0  0  0  0  0  0  0  0  0  0  0
    1.9070    1.4938    0.4193 H   0  0  0  0  0  0  0  0  0  0  0  0
   -0.1553   -0.3451    1.7350 H   0  0  0  0  0  0  0  0  0  0  0  0
   -0.1102    1.4054    1.7740 H   0  0  0  0  0  0  0  0  0  0  0  0
  1  2  1  0
  2  3  1  0
  3  4  2  0
  3  5  1  0
  5  6  1  0
  6  7  2  0
  7  8  1  0
  8  9  2  0
  9 10  1  0
 10 11  2  0
  5 12  1  0
 12 13  1  0
 13 14  1  0
 14 15  1  0
 12 16  1  0
 16 17  1  0
 17 18  1  0
 18 19  1  0
 19 20  1  0
 20 21  1  0
 21 22  2  0
 22 23  1  0
 23 24  2  0
 24 25  1  0
 18 26  1  0
 26 27  1  0
 11  6  1  0
 27 12  1  0
 25 21  1  0
  1 28  1  0
  1 29  1  0
  1 30  1  0
  2 31  1  0
  2 32  1  0
  7 33  1  0
  8 34  1  0
  9 35  1  0
 10 36  1  0
 11 37  1  0
 13 38  1  0
 13 39  1  0
 15 40  1  0
 15 41  1  0
 15 42  1  0
 16 43  1  0
 16 44  1  0
 17 45  1  0
 17 46  1  0
 19 47  1  0
 19 48  1  0
 20 49  1  0
 20 50  1  0
 22 51  1  0
 23 52  1  0
 24 53  1  0
 26 54  1  0
 26 55  1  0
 27 56  1  0
 27 57  1  0
M  END
$$$$

     RDKit          3D

 43 44  0  0  0  0  0  0  0  0999 V2000
    4.6646   -0.6036    1.0523 C   0  0  0  0  0  0  0  0  0  0  0  0
    3.6687   -0.9221   -0.0456 C   0  0  0  0  0  0  0  0  0  0  0  0
    2.3682   -0.5288    0.4061 O   0  0  0  0  0  0  0  0  0  0  0  0
    1.3611   -0.7548   -0.4938 C   0  0  0  0  0  0  0  0  0  0  0  0
    1.5441   -1.2616   -1.5949 O   0  0  0  0  0  0  0  0  0  0  0  0
   -0.0011   -0.2356    0.0537 C   0  0  0  0  0  0  0  0  0  0  0  0
    0.0690    1.3139    0.0197 C   0  0  0  0  0  0  0  0  0  0  0  0
   -0.0131    2.1083    1.1760 C   0  0  0  0  0  0  0  0  0  0  0  0
    0.0753    3.5022    1.1022 C   0  0  0  0  0  0  0  0  0  0  0  0
    0.2500    4.1310   -0.1266 C   0  0  0  0  0  0  0  0  0  0  0  0
    0.3367    3.3671   -1.2850 C   0  0  0  0  0  0  0  0  0  0  0  0
    0.2488    1.9750   -1.2129 C   0  0  0  0  0  0  0  0  0  0  0  0
   -0.1724   -0.8306    1.4871 C   0  0  0  0  0  0  0  0  0  0  0  0
   -0.2049   -2.3617    1.5145 C   0  0  0  0  0  0  0  0  0  0  0  0
   -1.0072   -2.9610    0.4069 C   0  0  0  0  0  0  0  0  0  0  0  0
   -1.4440   -2.2662   -0.6525 C   0  0  0  0  0  0  0  0  0  0  0  0
   -1.1578   -0.7935   -0.8964 C   0  0  0  0  0  0  0  0  0  0  0  0
   -2.4144    0.0090   -0.9535 N   0  0  0  0  0  0  0  0  0  0  0  0
   -3.2366    0.0040    0.2490 C   0  0  0  0  0  0  0  0  0  0  0  0
   -3.2230   -0.2840   -2.1364 C   0  0  0  0  0  0  0  0  0  0  0  0
    4.6506    0.4660    1.2866 H   0  0  0  0  0  0  0  0  0  0  0  0
    4.4048   -1.1347    1.9740 H   0  0  0  0  0  0  0  0  0  0  0  0
    5.6779   -0.8871    0.7545 H   0  0  0  0  0  0  0  0  0  0  0  0
    3.9288   -0.3668   -0.9536 H   0  0  0  0  0  0  0  0  0  0  0  0
    3.6783   -1.9979   -0.2530 H   0  0  0  0  0  0  0  0  0  0  0  0
   -0.1498    1.6684    2.1593 H   0  0  0  0  0  0  0  0  0  0  0  0
    0.0060    4.0968    2.0094 H   0  0  0  0  0  0  0  0  0  0  0  0
    0.3161    5.2140   -0.1812 H   0  0  0  0  0  0  0  0  0  0  0  0
    0.4697    3.8516   -2.2486 H   0  0  0  0  0  0  0  0  0  0  0  0
    0.3174    1.4080   -2.1400 H   0  0  0  0  0  0  0  0  0  0  0  0
    0.6335   -0.5023    2.1567 H   0  0  0  0  0  0  0  0  0  0  0  0
   -1.0937   -0.4653    1.9507 H   0  0  0  0  0  0  0  0  0  0  0  0
   -0.6181   -2.6882    2.4761 H   0  0  0  0  0  0  0  0  0  0  0  0
    0.8149   -2.7608    1.4611 H   0  0  0  0  0  0  0  0  0  0  0  0
   -1.2324   -4.0230    0.4759 H   0  0  0  0  0  0  0  0  0  0  0  0
   -2.0100   -2.7891   -1.4193 H   0  0  0  0  0  0  0  0  0  0  0  0
   -0.7524   -0.7447   -1.9167 H   0  0  0  0  0  0  0  0  0  0  0  0
   -3.5559   -1.0006    0.5443 H   0  0  0  0  0  0  0  0  0  0  0  0
   -2.7225    0.4790    1.0862 H   0  0  0  0  0  0  0  0  0  0  0  0
   -4.1418    0.6046    0.0974 H   0  0  0  0  0  0  0  0  0  0  0  0
   -2.6232   -0.2176   -3.0509 H   0  0  0  0  0  0  0  0  0  0  0  0
   -3.6871   -1.2750   -2.0947 H   0  0  0  0  0  0  0  0  0  0  0  0
   -4.0231    0.4575   -2.2439 H   0  0  0  0  0  0  0  0  0  0  0  0
  1  2  1  0
  2  3  1  0
  3  4  1  0
  4  5  2  0
  4  6  1  0
  6  7  1  0
  7  8  2  0
  8  9  1  0
  9 10  2  0
 10 11  1  0
 11 12  2  0
  6 13  1  0
 13 14  1  0
 14 15  1  0
 15 16  2  0
 16 17  1  0
 17 18  1  0
 18 19  1  0
 18 20  1  0
 17  6  1  0
 12  7  1  0
  1 21  1  0
  1 22  1  0
  1 23  1  0
  2 24  1  0
  2 25  1  0
  8 26  1  0
  9 27  1  0
 10 28  1  0
 11 29  1  0
 12 30  1  0
 13 31  1  0
 13 32  1  0
 14 33  1  0
 14 34  1  0
 15 35  1  0
 16 36  1  0
 17 37  1  0
 19 38  1  0
 19 39  1  0
 19 40  1  0
 20 41  1  0
 20 42  1  0
 20 43  1  0
M  END
$$$$

     RDKit          3D

 44 45  0  0  0  0  0  0  0  0999 V2000
    4.5328   -1.6674   -2.2995 C   0  0  0  0  0  0  0  0  0  0  0  0
    3.3681   -0.8907   -2.0499 O   0  0  0  0  0  0  0  0  0  0  0  0
    2.9701   -0.7775   -0.7456 C   0  0  0  0  0  0  0  0  0  0  0  0
    3.5919   -1.3615    0.3548 C   0  0  0  0  0  0  0  0  0  0  0  0
    3.0748   -1.1577    1.6344 C   0  0  0  0  0  0  0  0  0  0  0  0
    1.9342   -0.3734    1.8192 C   0  0  0  0  0  0  0  0  0  0  0  0
    1.2816    0.2235    0.7291 C   0  0  0  0  0  0  0  0  0  0  0  0
    0.0233    1.0848    0.9167 C   0  0  0  0  0  0  0  0  0  0  0  0
   -0.3437    1.0558    2.3062 O   0  0  0  0  0  0  0  0  0  0  0  0
    0.3699    2.5511    0.5610 C   0  0  0  0  0  0  0  0  0  0  0  0
   -0.8387    3.4850    0.5978 C   0  0  0  0  0  0  0  0  0  0  0  0
   -1.9703    2.9631   -0.2754 C   0  0  0  0  0  0  0  0  0  0  0  0
   -2.3750    1.5430    0.1065 C   0  0  0  0  0  0  0  0  0  0  0  0
   -1.1801    0.5638    0.0629 C   0  0  0  0  0  0  0  0  0  0  0  0
   -1.6253   -0.8543    0.5149 C   0  0  0  0  0  0  0  0  0  0  0  0
   -2.7323   -1.4260   -0.2831 N   0  0  0  0  0  0  0  0  0  0  0  0
   -3.2606   -2.6188    0.3865 C   0  0  0  0  0  0  0  0  0  0  0  0
   -2.2962   -1.7804   -1.6366 C   0  0  0  0  0  0  0  0  0  0  0  0
    1.8273    0.0078   -0.5517 C   0  0  0  0  0  0  0  0  0  0  0  0
    5.4094   -1.2353   -1.8056 H   0  0  0  0  0  0  0  0  0  0  0  0
    4.7185   -1.6541   -3.3778 H   0  0  0  0  0  0  0  0  0  0  0  0
    4.3834   -2.7102   -2.0006 H   0  0  0  0  0  0  0  0  0  0  0  0
    4.4786   -1.9774    0.2546 H   0  0  0  0  0  0  0  0  0  0  0  0
    3.5607   -1.6105    2.4950 H   0  0  0  0  0  0  0  0  0  0  0  0
    1.5578   -0.2340    2.8309 H   0  0  0  0  0  0  0  0  0  0  0  0
   -1.1295    1.6107    2.4306 H   0  0  0  0  0  0  0  0  0  0  0  0
    0.8118    2.6107   -0.4418 H   0  0  0  0  0  0  0  0  0  0  0  0
    1.1222    2.9377    1.2612 H   0  0  0  0  0  0  0  0  0  0  0  0
   -1.1909    3.6092    1.6283 H   0  0  0  0  0  0  0  0  0  0  0  0
   -0.5389    4.4806    0.2506 H   0  0  0  0  0  0  0  0  0  0  0  0
   -1.6597    2.9826   -1.3273 H   0  0  0  0  0  0  0  0  0  0  0  0
   -2.8375    3.6275   -0.1883 H   0  0  0  0  0  0  0  0  0  0  0  0
   -2.8296    1.5478    1.1046 H   0  0  0  0  0  0  0  0  0  0  0  0
   -3.1570    1.2130   -0.5875 H   0  0  0  0  0  0  0  0  0  0  0  0
   -0.8563    0.5140   -0.9835 H   0  0  0  0  0  0  0  0  0  0  0  0
   -1.9567   -0.7808    1.5592 H   0  0  0  0  0  0  0  0  0  0  0  0
   -0.7737   -1.5458    0.5067 H   0  0  0  0  0  0  0  0  0  0  0  0
   -2.5013   -3.4014    0.4984 H   0  0  0  0  0  0  0  0  0  0  0  0
   -4.1050   -3.0339   -0.1753 H   0  0  0  0  0  0  0  0  0  0  0  0
   -3.6451   -2.3646    1.3806 H   0  0  0  0  0  0  0  0  0  0  0  0
   -2.0014   -0.8932   -2.2048 H   0  0  0  0  0  0  0  0  0  0  0  0
   -3.1205   -2.2356   -2.1978 H   0  0  0  0  0  0  0  0  0  0  0  0
   -1.4569   -2.4852   -1.6305 H   0  0  0  0  0  0  0  0  0  0  0  0
    1.3659    0.4579   -1.4282 H   0  0  0  0  0  0  0  0  0  0  0  0
  1  2  1  0
  2  3  1  0
  3  4  2  0
  4  5  1  0
  5  6  2  0
  6  7  1  0
  7  8  1  0
  8  9  1  0
  8 10  1  0
 10 11  1  0
 11 12  1  0
 12 13  1  0
 13 14  1  0
 14 15  1  0
 15 16  1  0
 16 17  1  0
 16 18  1  0
  7 19  2  0
 19  3  1  0
 14  8  1  0
  1 20  1  0
  1 21  1  0
  1 22  1  0
  4 23  1  0
  5 24  1  0
  6 25  1  0
  9 26  1  0
 10 27  1  0
 10 28  1  0
 11 29  1  0
 11 30  1  0
 12 31  1  0
 12 32  1  0
 13 33  1  0
 13 34  1  0
 14 35  1  0
 15 36  1  0
 15 37  1  0
 17 38  1  0
 17 39  1  0
 17 40  1  0
 18 41  1  0
 18 42  1  0
 18 43  1  0
 19 44  1  0
M  END
